@<TRIPOS>MOLECULE
*****
 35 38 0 0 0
SMALL
GASTEIGER

@<TRIPOS>ATOM
      1 C          61.3231   89.9867   12.3683 C.2     1  UNL1        0.2459
      2 O          61.0205   89.5965   13.7847 O.2     1  UNL1       -0.2730
      3 N          62.6174   90.6694   12.0385 N.am    1  UNL1       -0.2781
      4 C          62.9199   91.0596   10.6222 C.3     1  UNL1        0.0935
      5 C          64.2142   91.7423   10.2925 C.3     1  UNL1        0.0219
      6 C          65.2059   92.0349   11.3792 C.3     1  UNL1        0.0078
      7 C          64.9033   91.6447   12.7956 C.3     1  UNL1        0.0419
      8 C          63.6091   90.9620   13.1252 C.3     1  UNL1        0.0953
      9 C          65.8950   91.9373   13.8823 C.ar    1  UNL1       -0.0209
     10 C          67.3655   91.8560   13.5975 C.ar    1  UNL1       -0.0042
     11 C          68.3572   92.1485   14.6842 C.ar    1  UNL1       -0.0003
     12 C          67.8784   92.5224   16.0557 C.ar    1  UNL1       -0.0000
     13 C          66.4080   92.6038   16.3405 C.ar    1  UNL1       -0.0003
     14 C          65.4163   92.3112   15.2537 C.ar    1  UNL1       -0.0042
     15 C          60.3314   89.6941   11.2816 C.3     1  UNL1        0.1773
     16 N          60.7585   88.9335   10.0614 N.pl3   1  UNL1       -0.2973
     17 C          61.4154   87.5926   10.2051 C.ar    1  UNL1        0.0492
     18 C          61.5206   86.9501   11.5565 C.ar    1  UNL1        0.0154
     19 C          62.1775   85.6093   11.7003 C.ar    1  UNL1        0.0135
     20 C          62.7291   84.9110   10.4928 C.ar    1  UNL1        0.0683
     21 CL         63.3860   83.5701   10.6366 Cl      1  UNL1       -0.0814
     22 C          62.6239   85.5535    9.1415 C.ar    1  UNL1        0.0694
     23 CL         63.1755   84.8552    7.9339 Cl      1  UNL1       -0.0813
     24 C          61.9670   86.8943    8.9976 C.ar    1  UNL1        0.0268
     25 C          60.5287   89.5136    8.6973 C.3     1  UNL1        0.1234
     26 C          59.4537   88.9519    7.8147 C.3     1  UNL1        0.1636
     27 C          58.7645   90.4584    5.8134 C.3     1  UNL1        0.1742
     28 O          59.4639   89.2418    6.3431 O.3     1  UNL1       -0.3493
     29 C          63.3065   90.5718   14.5417 C.3     1  UNL1        0.0926
     30 N          63.5337   89.1603   14.9957 N.3     1  UNL1       -0.2670
     31 C          63.0953   88.7331   16.3650 C.3     1  UNL1        0.1047
     32 C          63.3226   87.3216   16.8190 C.3     1  UNL1        0.1595
     33 O          63.9883   86.3374   15.9036 O.3     1  UNL1       -0.3508
     34 C          64.4268   86.7646   14.5341 C.3     1  UNL1        0.1595
     35 C          64.1995   88.1760   14.0802 C.3     1  UNL1        0.1047
@<TRIPOS>BOND
     1    27    28    1
     2    28    26    1
     3    26    25    1
     4    25    16    1
     5    16    15    1
     6    15     1    1
     7     1     2    2
     8     1     3   am
     9     3     4    1
    10     4     5    1
    11     5     6    1
    12     6     7    1
    13     7     9    1
    14     9    10   ar
    15    10    11   ar
    16    11    12   ar
    17    12    13   ar
    18    13    14   ar
    19     7     8    1
    20     8    29    1
    21    29    30    1
    22    30    31    1
    23    31    32    1
    24    32    33    1
    25    33    34    1
    26    34    35    1
    27    16    17    1
    28    17    18   ar
    29    18    19   ar
    30    19    20   ar
    31    20    21    1
    32    20    22   ar
    33    22    23    1
    34    22    24   ar
    35     8     3    1
    36    35    30    1
    37    24    17   ar
    38    14     9   ar
@<TRIPOS>MOLECULE
*****
 35 38 0 0 0
SMALL
GASTEIGER

@<TRIPOS>ATOM
      1 C          61.6688   87.1154   10.7136 C.2     1  UNL1        0.2459
      2 O          61.0012   87.2155   12.0531 O.2     1  UNL1       -0.2730
      3 N          62.4029   85.8638   10.3331 N.am    1  UNL1       -0.2781
      4 C          63.0704   85.7637    8.9936 C.3     1  UNL1        0.0935
      5 C          63.8045   84.5122    8.6132 C.3     1  UNL1        0.0219
      6 C          63.8710   83.3608    9.5722 C.3     1  UNL1        0.0078
      7 C          63.2034   83.4609   10.9117 C.3     1  UNL1        0.0419
      8 C          62.4694   84.7124   11.2922 C.3     1  UNL1        0.0953
      9 C          63.2699   82.3094   11.8708 C.ar    1  UNL1       -0.0209
     10 C          62.3241   81.1547   11.7230 C.ar    1  UNL1       -0.0042
     11 C          62.3906   80.0032   12.6820 C.ar    1  UNL1       -0.0003
     12 C          63.4030   80.0066   13.7889 C.ar    1  UNL1       -0.0000
     13 C          64.3488   81.1613   13.9366 C.ar    1  UNL1       -0.0003
     14 C          64.2823   82.3127   12.9776 C.ar    1  UNL1       -0.0042
     15 C          61.6022   88.2668    9.7546 C.3     1  UNL1        0.1773
     16 N          61.4056   89.6617   10.2699 N.pl3   1  UNL1       -0.2973
     17 C          62.5612   90.4120   10.8630 C.ar    1  UNL1        0.0492
     18 C          63.3003   91.4244   10.0391 C.ar    1  UNL1        0.0154
     19 C          64.4558   92.1747   10.6321 C.ar    1  UNL1        0.0135
     20 C          64.8723   91.9126   12.0491 C.ar    1  UNL1        0.0683
     21 CL         66.0279   92.6630   12.6422 Cl      1  UNL1       -0.0814
     22 C          64.1332   90.9002   12.8730 C.ar    1  UNL1        0.0694
     23 CL         64.5497   90.6382   14.2900 Cl      1  UNL1       -0.0813
     24 C          62.9777   90.1499   12.2799 C.ar    1  UNL1        0.0268
     25 C          60.0535   90.3064   10.1921 C.3     1  UNL1        0.1234
     26 C          59.2898   90.6013   11.4491 C.3     1  UNL1        0.1636
     27 C          58.2324   88.8848   13.0879 C.3     1  UNL1        0.1742
     28 O          59.4140   89.6893   12.6335 O.3     1  UNL1       -0.3493
     29 C          61.8018   84.8125   12.6317 C.3     1  UNL1        0.0926
     30 N          62.6185   85.0968   13.8573 N.3     1  UNL1       -0.2670
     31 C          63.8534   85.9422   13.7562 C.3     1  UNL1        0.1047
     32 C          64.6701   86.2265   14.9818 C.3     1  UNL1        0.1595
     33 O          64.2519   85.6654   16.3086 O.3     1  UNL1       -0.3508
     34 C          63.0170   84.8200   16.4097 C.3     1  UNL1        0.1595
     35 C          62.2002   84.5357   15.1841 C.3     1  UNL1        0.1047
@<TRIPOS>BOND
     1    27    28    1
     2    28    26    1
     3    26    25    1
     4    25    16    1
     5    16    15    1
     6    15     1    1
     7     1     2    2
     8     1     3   am
     9     3     4    1
    10     4     5    1
    11     5     6    1
    12     6     7    1
    13     7     9    1
    14     9    10   ar
    15    10    11   ar
    16    11    12   ar
    17    12    13   ar
    18    13    14   ar
    19     7     8    1
    20     8    29    1
    21    29    30    1
    22    30    31    1
    23    31    32    1
    24    32    33    1
    25    33    34    1
    26    34    35    1
    27    16    17    1
    28    17    18   ar
    29    18    19   ar
    30    19    20   ar
    31    20    21    1
    32    20    22   ar
    33    22    23    1
    34    22    24   ar
    35     8     3    1
    36    35    30    1
    37    24    17   ar
    38    14     9   ar
@<TRIPOS>MOLECULE
*****
 35 38 0 0 0
SMALL
GASTEIGER

@<TRIPOS>ATOM
      1 C          64.2720   89.8702   13.3509 C.2     1  UNL1        0.2459
      2 O          65.0747   89.5158   14.5675 O.2     1  UNL1       -0.2730
      3 N          63.5651   88.7954   12.5794 N.am    1  UNL1       -0.2781
      4 C          62.7625   89.1498   11.3629 C.3     1  UNL1        0.0935
      5 C          62.0556   88.0750   10.5914 C.3     1  UNL1        0.0219
      6 C          62.1515   86.6458   11.0365 C.3     1  UNL1        0.0078
      7 C          62.9542   86.2914   12.2531 C.3     1  UNL1        0.0419
      8 C          63.6610   87.3662   13.0245 C.3     1  UNL1        0.0953
      9 C          63.0501   84.8621   12.6982 C.ar    1  UNL1       -0.0209
     10 C          62.1054   84.3352   13.7373 C.ar    1  UNL1       -0.0042
     11 C          62.2013   82.9060   14.1824 C.ar    1  UNL1       -0.0003
     12 C          63.2419   82.0037   13.5884 C.ar    1  UNL1       -0.0000
     13 C          64.1866   82.5306   12.5492 C.ar    1  UNL1       -0.0003
     14 C          64.0907   83.9598   12.1041 C.ar    1  UNL1       -0.0042
     15 C          64.1761   91.2994   12.9058 C.3     1  UNL1        0.1773
     16 N          65.3187   92.2397   13.1515 N.pl3   1  UNL1       -0.2973
     17 C          65.9694   92.9465   11.9994 C.ar    1  UNL1        0.0492
     18 C          65.7472   94.4163   11.7991 C.ar    1  UNL1        0.0154
     19 C          66.3979   95.1231   10.6472 C.ar    1  UNL1        0.0135
     20 C          67.2707   94.3600    9.6955 C.ar    1  UNL1        0.0683
     21 CL         67.9214   95.0667    8.5434 Cl      1  UNL1       -0.0814
     22 C          67.4929   92.8901    9.8958 C.ar    1  UNL1        0.0694
     23 CL         68.3658   92.1270    8.9440 Cl      1  UNL1       -0.0813
     24 C          66.8422   92.1834   11.0477 C.ar    1  UNL1        0.0268
     25 C          65.8106   92.4733   14.5491 C.3     1  UNL1        0.1234
     26 C          67.2318   92.1538   14.9073 C.3     1  UNL1        0.1636
     27 C          68.9886   93.7911   15.8985 C.3     1  UNL1        0.1742
     28 O          68.3046   93.1834   14.7099 O.3     1  UNL1       -0.3493
     29 C          64.4638   87.0118   14.2411 C.3     1  UNL1        0.0926
     30 N          63.7917   86.9039   15.5778 N.3     1  UNL1       -0.2670
     31 C          63.5355   85.5550   16.1818 C.3     1  UNL1        0.1047
     32 C          62.8635   85.4471   17.5185 C.3     1  UNL1        0.1595
     33 O          62.4477   86.6880   18.2512 O.3     1  UNL1       -0.3508
     34 C          62.7038   88.0370   17.6473 C.3     1  UNL1        0.1595
     35 C          63.3759   88.1449   16.3106 C.3     1  UNL1        0.1047
@<TRIPOS>BOND
     1    27    28    1
     2    28    26    1
     3    26    25    1
     4    25    16    1
     5    16    15    1
     6    15     1    1
     7     1     2    2
     8     1     3   am
     9     3     4    1
    10     4     5    1
    11     5     6    1
    12     6     7    1
    13     7     9    1
    14     9    10   ar
    15    10    11   ar
    16    11    12   ar
    17    12    13   ar
    18    13    14   ar
    19     7     8    1
    20     8    29    1
    21    29    30    1
    22    30    31    1
    23    31    32    1
    24    32    33    1
    25    33    34    1
    26    34    35    1
    27    16    17    1
    28    17    18   ar
    29    18    19   ar
    30    19    20   ar
    31    20    21    1
    32    20    22   ar
    33    22    23    1
    34    22    24   ar
    35     8     3    1
    36    35    30    1
    37    24    17   ar
    38    14     9   ar
@<TRIPOS>MOLECULE
*****
 35 38 0 0 0
SMALL
GASTEIGER

@<TRIPOS>ATOM
      1 C          63.9182   89.6059   13.1406 C.2     1  UNL1        0.2459
      2 O          64.7416   89.3351   14.3647 O.2     1  UNL1       -0.2730
      3 N          63.2946   88.4671   12.3892 N.am    1  UNL1       -0.2781
      4 C          62.4711   88.7378   11.1651 C.3     1  UNL1        0.0935
      5 C          61.8476   87.5991   10.4138 C.3     1  UNL1        0.0219
      6 C          62.0475   86.1897   10.8866 C.3     1  UNL1        0.0078
      7 C          62.8710   85.9190   12.1107 C.3     1  UNL1        0.0419
      8 C          63.4945   87.0577   12.8620 C.3     1  UNL1        0.0953
      9 C          63.0710   84.5096   12.5836 C.ar    1  UNL1       -0.0209
     10 C          64.2288   83.7043   12.0729 C.ar    1  UNL1       -0.0042
     11 C          64.4288   82.2949   12.5458 C.ar    1  UNL1       -0.0003
     12 C          63.4709   81.6907   13.5293 C.ar    1  UNL1       -0.0000
     13 C          62.3130   82.4960   14.0399 C.ar    1  UNL1       -0.0003
     14 C          62.1130   83.9054   13.5671 C.ar    1  UNL1       -0.0042
     15 C          63.7182   91.0153   12.6678 C.3     1  UNL1        0.1773
     16 N          64.9056   91.8814   12.3681 N.pl3   1  UNL1       -0.2973
     17 C          65.9628   92.0920   13.4113 C.ar    1  UNL1        0.0492
     18 C          65.5737   92.4972   14.8021 C.ar    1  UNL1        0.0154
     19 C          66.6308   92.7078   15.8453 C.ar    1  UNL1        0.0135
     20 C          68.0769   92.5132   15.4976 C.ar    1  UNL1        0.0683
     21 CL         69.1340   92.7238   16.5408 Cl      1  UNL1       -0.0814
     22 C          68.4659   92.1079   14.1068 C.ar    1  UNL1        0.0694
     23 CL         69.9121   91.9132   13.7591 Cl      1  UNL1       -0.0813
     24 C          67.4088   91.8973   13.0636 C.ar    1  UNL1        0.0268
     25 C          65.0360   92.5369   11.0252 C.3     1  UNL1        0.1234
     26 C          65.5870   93.9282   10.9201 C.3     1  UNL1        0.1636
     27 C          67.6665   93.2089    9.5388 C.3     1  UNL1        0.1742
     28 O          67.0166   94.1403   10.5186 O.3     1  UNL1       -0.3493
     29 C          64.3181   86.7870   14.0863 C.3     1  UNL1        0.0926
     30 N          63.6520   86.6527   15.4236 N.3     1  UNL1       -0.2670
     31 C          63.2441   85.2994   15.9257 C.3     1  UNL1        0.1047
     32 C          62.5780   85.1650   17.2629 C.3     1  UNL1        0.1595
     33 O          62.3200   86.3840   18.0981 O.3     1  UNL1       -0.3508
     34 C          62.7280   87.7373   17.5961 C.3     1  UNL1        0.1595
     35 C          63.3940   87.8717   16.2588 C.3     1  UNL1        0.1047
@<TRIPOS>BOND
     1    27    28    1
     2    28    26    1
     3    26    25    1
     4    25    16    1
     5    16    15    1
     6    15     1    1
     7     1     2    2
     8     1     3   am
     9     3     4    1
    10     4     5    1
    11     5     6    1
    12     6     7    1
    13     7     9    1
    14     9    10   ar
    15    10    11   ar
    16    11    12   ar
    17    12    13   ar
    18    13    14   ar
    19     7     8    1
    20     8    29    1
    21    29    30    1
    22    30    31    1
    23    31    32    1
    24    32    33    1
    25    33    34    1
    26    34    35    1
    27    16    17    1
    28    17    18   ar
    29    18    19   ar
    30    19    20   ar
    31    20    21    1
    32    20    22   ar
    33    22    23    1
    34    22    24   ar
    35     8     3    1
    36    35    30    1
    37    24    17   ar
    38    14     9   ar
@<TRIPOS>MOLECULE
*****
 35 38 0 0 0
SMALL
GASTEIGER

@<TRIPOS>ATOM
      1 C          63.0987   88.1841   12.7924 C.2     1  UNL1        0.2459
      2 O          61.9057   88.0397   11.8947 O.2     1  UNL1       -0.2730
      3 N          63.7045   86.9719   13.4356 N.am    1  UNL1       -0.2781
      4 C          64.8975   87.1162   14.3332 C.3     1  UNL1        0.0935
      5 C          65.5032   85.9041   14.9764 C.3     1  UNL1        0.0219
      6 C          64.9158   84.5475   14.7220 C.3     1  UNL1        0.0078
      7 C          63.7228   84.4031   13.8244 C.3     1  UNL1        0.0419
      8 C          63.1171   85.6153   13.1812 C.3     1  UNL1        0.0953
      9 C          63.1354   83.0465   13.5699 C.ar    1  UNL1       -0.0209
     10 C          63.6432   82.2107   12.4326 C.ar    1  UNL1       -0.0042
     11 C          63.0558   80.8542   12.1782 C.ar    1  UNL1       -0.0003
     12 C          61.9607   80.3334   13.0610 C.ar    1  UNL1       -0.0000
     13 C          61.4530   81.1692   14.1984 C.ar    1  UNL1       -0.0003
     14 C          62.0403   82.5258   14.4528 C.ar    1  UNL1       -0.0042
     15 C          63.6861   89.5406   13.0468 C.3     1  UNL1        0.1773
     16 N          63.7691   90.0713   14.4473 N.pl3   1  UNL1       -0.2973
     17 C          64.9013   90.9727   14.8419 C.ar    1  UNL1        0.0492
     18 C          64.7848   91.8310   16.0666 C.ar    1  UNL1        0.0154
     19 C          65.9169   92.7324   16.4612 C.ar    1  UNL1        0.0135
     20 C          67.1655   92.7756   15.6312 C.ar    1  UNL1        0.0683
     21 CL         68.2977   93.6770   16.0258 Cl      1  UNL1       -0.0814
     22 C          67.2821   91.9173   14.4065 C.ar    1  UNL1        0.0694
     23 CL         68.5308   91.9605   13.5765 Cl      1  UNL1       -0.0813
     24 C          66.1500   91.0159   14.0119 C.ar    1  UNL1        0.0268
     25 C          62.7200   89.7006   15.4533 C.3     1  UNL1        0.1234
     26 C          63.0710   88.8129   16.6105 C.3     1  UNL1        0.1636
     27 C          62.7155   86.6143   17.9483 C.3     1  UNL1        0.1742
     28 O          62.3737   87.4962   16.7841 O.3     1  UNL1       -0.3493
     29 C          61.9240   85.4709   12.2835 C.3     1  UNL1        0.0926
     30 N          62.1083   85.4025   10.7964 N.3     1  UNL1       -0.2670
     31 C          63.2642   84.6413   10.2181 C.3     1  UNL1        0.1047
     32 C          63.4484   84.5729    8.7311 C.3     1  UNL1        0.1595
     33 O          62.4767   85.2656    7.8223 O.3     1  UNL1       -0.3508
     34 C          61.3207   86.0268    8.4005 C.3     1  UNL1        0.1595
     35 C          61.1365   86.0952    9.8876 C.3     1  UNL1        0.1047
@<TRIPOS>BOND
     1    27    28    1
     2    28    26    1
     3    26    25    1
     4    25    16    1
     5    16    15    1
     6    15     1    1
     7     1     2    2
     8     1     3   am
     9     3     4    1
    10     4     5    1
    11     5     6    1
    12     6     7    1
    13     7     9    1
    14     9    10   ar
    15    10    11   ar
    16    11    12   ar
    17    12    13   ar
    18    13    14   ar
    19     7     8    1
    20     8    29    1
    21    29    30    1
    22    30    31    1
    23    31    32    1
    24    32    33    1
    25    33    34    1
    26    34    35    1
    27    16    17    1
    28    17    18   ar
    29    18    19   ar
    30    19    20   ar
    31    20    21    1
    32    20    22   ar
    33    22    23    1
    34    22    24   ar
    35     8     3    1
    36    35    30    1
    37    24    17   ar
    38    14     9   ar
@<TRIPOS>MOLECULE
*****
 35 38 0 0 0
SMALL
GASTEIGER

@<TRIPOS>ATOM
      1 C          62.0342   89.8581   11.7447 C.2     1  UNL1        0.2459
      2 O          61.9553   91.2368   11.1591 O.2     1  UNL1       -0.2730
      3 N          63.0947   89.5315   12.7541 N.am    1  UNL1       -0.2781
      4 C          63.1736   88.1529   13.3396 C.3     1  UNL1        0.0935
      5 C          64.2340   87.8263   14.3490 C.3     1  UNL1        0.0219
      6 C          65.2155   88.8785   14.7728 C.3     1  UNL1        0.0078
      7 C          65.1366   90.2572   14.1873 C.3     1  UNL1        0.0419
      8 C          64.0762   90.5837   13.1779 C.3     1  UNL1        0.0953
      9 C          66.1181   91.3093   14.6111 C.ar    1  UNL1       -0.0209
     10 C          65.7510   92.2875   15.6873 C.ar    1  UNL1       -0.0042
     11 C          66.7325   93.3397   16.1111 C.ar    1  UNL1       -0.0003
     12 C          68.0811   93.4137   15.4587 C.ar    1  UNL1       -0.0000
     13 C          68.4482   92.4355   14.3825 C.ar    1  UNL1       -0.0003
     14 C          67.4667   91.3833   13.9587 C.ar    1  UNL1       -0.0042
     15 C          61.0527   88.8060   11.3209 C.3     1  UNL1        0.1773
     16 N          61.2571   88.0649   10.0329 N.pl3   1  UNL1       -0.2973
     17 C          61.9558   86.7375   10.0340 C.ar    1  UNL1        0.0492
     18 C          62.6009   86.2285    8.7791 C.ar    1  UNL1        0.0154
     19 C          63.2996   84.9012    8.7802 C.ar    1  UNL1        0.0135
     20 C          63.3532   84.0829   10.0362 C.ar    1  UNL1        0.0683
     21 CL         64.0520   82.7555   10.0373 Cl      1  UNL1       -0.0814
     22 C          62.7081   84.5920   11.2911 C.ar    1  UNL1        0.0694
     23 CL         62.7618   83.7736   12.5471 Cl      1  UNL1       -0.0813
     24 C          62.0094   85.9193   11.2900 C.ar    1  UNL1        0.0268
     25 C          60.7628   88.6511    8.7437 C.3     1  UNL1        0.1234
     26 C          59.6423   87.9877    7.9990 C.3     1  UNL1        0.1636
     27 C          59.3626   89.8020    6.1605 C.3     1  UNL1        0.1742
     28 O          58.7591   88.7970    7.0963 O.3     1  UNL1       -0.3493
     29 C          63.9972   91.9625   12.5923 C.3     1  UNL1        0.0926
     30 N          65.1756   92.5359   11.8625 N.3     1  UNL1       -0.2670
     31 C          65.6937   93.8958   12.2261 C.3     1  UNL1        0.1047
     32 C          66.8721   94.4692   11.4963 C.3     1  UNL1        0.1595
     33 O          67.5323   93.6828   10.4029 O.3     1  UNL1       -0.3508
     34 C          67.0141   92.3229   10.0392 C.3     1  UNL1        0.1595
     35 C          65.8358   91.7495   10.7690 C.3     1  UNL1        0.1047
@<TRIPOS>BOND
     1    27    28    1
     2    28    26    1
     3    26    25    1
     4    25    16    1
     5    16    15    1
     6    15     1    1
     7     1     2    2
     8     1     3   am
     9     3     4    1
    10     4     5    1
    11     5     6    1
    12     6     7    1
    13     7     9    1
    14     9    10   ar
    15    10    11   ar
    16    11    12   ar
    17    12    13   ar
    18    13    14   ar
    19     7     8    1
    20     8    29    1
    21    29    30    1
    22    30    31    1
    23    31    32    1
    24    32    33    1
    25    33    34    1
    26    34    35    1
    27    16    17    1
    28    17    18   ar
    29    18    19   ar
    30    19    20   ar
    31    20    21    1
    32    20    22   ar
    33    22    23    1
    34    22    24   ar
    35     8     3    1
    36    35    30    1
    37    24    17   ar
    38    14     9   ar
@<TRIPOS>MOLECULE
*****
 35 38 0 0 0
SMALL
GASTEIGER

@<TRIPOS>ATOM
      1 C          63.1281   87.8248   12.7629 C.2     1  UNL1        0.2459
      2 O          62.0050   87.6751   11.7800 O.2     1  UNL1       -0.2730
      3 N          63.6696   86.6192   13.4724 N.am    1  UNL1       -0.2781
      4 C          64.7927   86.7689   14.4553 C.3     1  UNL1        0.0935
      5 C          65.3342   85.5633   15.1648 C.3     1  UNL1        0.0219
      6 C          64.7525   84.2080   14.8913 C.3     1  UNL1        0.0078
      7 C          63.6294   84.0583   13.9083 C.3     1  UNL1        0.0419
      8 C          63.0880   85.2639   13.1989 C.3     1  UNL1        0.0953
      9 C          63.0477   82.7029   13.6349 C.ar    1  UNL1       -0.0209
     10 C          61.8847   82.2089   14.4431 C.ar    1  UNL1       -0.0042
     11 C          61.3031   80.8536   14.1696 C.ar    1  UNL1       -0.0003
     12 C          61.8844   79.9923   13.0879 C.ar    1  UNL1       -0.0000
     13 C          63.0474   80.4863   12.2796 C.ar    1  UNL1       -0.0003
     14 C          63.6291   81.8417   12.5531 C.ar    1  UNL1       -0.0042
     15 C          63.7098   89.1801   13.0364 C.3     1  UNL1        0.1773
     16 N          63.2295   90.3723   12.2632 N.pl3   1  UNL1       -0.2973
     17 C          64.1700   91.5028   11.9670 C.ar    1  UNL1        0.0492
     18 C          64.3025   92.0205   10.5655 C.ar    1  UNL1        0.0154
     19 C          65.2429   93.1509   10.2693 C.ar    1  UNL1        0.0135
     20 C          66.0509   93.7635   11.3746 C.ar    1  UNL1        0.0683
     21 CL         66.9914   94.8940   11.0785 Cl      1  UNL1       -0.0814
     22 C          65.9184   93.2457   12.7762 C.ar    1  UNL1        0.0694
     23 CL         66.7264   93.8584   13.8816 Cl      1  UNL1       -0.0813
     24 C          64.9780   92.1154   13.0724 C.ar    1  UNL1        0.0268
     25 C          61.8088   90.4342   11.7861 C.3     1  UNL1        0.1234
     26 C          61.5030   90.3115   10.3226 C.3     1  UNL1        0.1636
     27 C          60.0218   89.1312    8.5442 C.3     1  UNL1        0.1742
     28 O          60.1631   89.8064    9.8761 O.3     1  UNL1       -0.3493
     29 C          61.9648   85.1142   12.2159 C.3     1  UNL1        0.0926
     30 N          62.2546   85.0874   10.7444 N.3     1  UNL1       -0.2670
     31 C          61.3770   85.8457    9.7933 C.3     1  UNL1        0.1047
     32 C          61.6668   85.8190    8.3218 C.3     1  UNL1        0.1595
     33 O          62.8341   85.0339    7.8014 O.3     1  UNL1       -0.3508
     34 C          63.7118   84.2755    8.7526 C.3     1  UNL1        0.1595
     35 C          63.4220   84.3023   10.2241 C.3     1  UNL1        0.1047
@<TRIPOS>BOND
     1    27    28    1
     2    28    26    1
     3    26    25    1
     4    25    16    1
     5    16    15    1
     6    15     1    1
     7     1     2    2
     8     1     3   am
     9     3     4    1
    10     4     5    1
    11     5     6    1
    12     6     7    1
    13     7     9    1
    14     9    10   ar
    15    10    11   ar
    16    11    12   ar
    17    12    13   ar
    18    13    14   ar
    19     7     8    1
    20     8    29    1
    21    29    30    1
    22    30    31    1
    23    31    32    1
    24    32    33    1
    25    33    34    1
    26    34    35    1
    27    16    17    1
    28    17    18   ar
    29    18    19   ar
    30    19    20   ar
    31    20    21    1
    32    20    22   ar
    33    22    23    1
    34    22    24   ar
    35     8     3    1
    36    35    30    1
    37    24    17   ar
    38    14     9   ar
@<TRIPOS>MOLECULE
*****
 35 38 0 0 0
SMALL
GASTEIGER

@<TRIPOS>ATOM
      1 C          61.8114   86.9187   10.5164 C.2     1  UNL1        0.2459
      2 O          61.0984   87.1358   11.8181 O.2     1  UNL1       -0.2730
      3 N          62.5233   85.6239   10.2581 N.am    1  UNL1       -0.2781
      4 C          63.2363   85.4068    8.9564 C.3     1  UNL1        0.0935
      5 C          63.9482   84.1120    8.6981 C.3     1  UNL1        0.0219
      6 C          63.9472   83.0344    9.7415 C.3     1  UNL1        0.0078
      7 C          63.2342   83.2515   11.0432 C.3     1  UNL1        0.0419
      8 C          62.5223   84.5463   11.3015 C.3     1  UNL1        0.0953
      9 C          63.2331   82.1739   12.0866 C.ar    1  UNL1       -0.0209
     10 C          62.1522   81.1339   12.0896 C.ar    1  UNL1       -0.0042
     11 C          62.1512   80.0563   13.1330 C.ar    1  UNL1       -0.0003
     12 C          63.2310   80.0187   14.1735 C.ar    1  UNL1       -0.0000
     13 C          64.3119   81.0587   14.1705 C.ar    1  UNL1       -0.0003
     14 C          64.3129   82.1363   13.1271 C.ar    1  UNL1       -0.0042
     15 C          61.8124   87.9963    9.4730 C.3     1  UNL1        0.1773
     16 N          61.5514   89.4204    9.8652 N.pl3   1  UNL1       -0.2973
     17 C          62.5414   90.1569   10.7183 C.ar    1  UNL1        0.0492
     18 C          62.6695   89.8246   12.1754 C.ar    1  UNL1        0.0154
     19 C          63.6594   90.5610   13.0284 C.ar    1  UNL1        0.0135
     20 C          64.5213   91.6297   12.4243 C.ar    1  UNL1        0.0683
     21 CL         65.5113   92.3662   13.2773 Cl      1  UNL1       -0.0814
     22 C          64.3932   91.9620   10.9672 C.ar    1  UNL1        0.0694
     23 CL         65.2552   93.0308   10.3631 Cl      1  UNL1       -0.0813
     24 C          63.4033   91.2256   10.1141 C.ar    1  UNL1        0.0268
     25 C          60.3005   90.1080    9.4045 C.3     1  UNL1        0.1234
     26 C          59.4200   89.4558    8.3800 C.3     1  UNL1        0.1636
     27 C          59.1045   90.1396    5.8935 C.3     1  UNL1        0.1742
     28 O          59.8602   89.3864    6.9478 O.3     1  UNL1       -0.3493
     29 C          61.8092   84.7635   12.6032 C.3     1  UNL1        0.0926
     30 N          62.5935   85.0514   13.8490 N.3     1  UNL1       -0.2670
     31 C          63.8558   85.8580   13.7710 C.3     1  UNL1        0.1047
     32 C          64.6401   86.1459   15.0167 C.3     1  UNL1        0.1595
     33 O          64.1622   85.6273   16.3406 O.3     1  UNL1       -0.3508
     34 C          62.8999   84.8206   16.4187 C.3     1  UNL1        0.1595
     35 C          62.1156   84.5327   15.1729 C.3     1  UNL1        0.1047
@<TRIPOS>BOND
     1    27    28    1
     2    28    26    1
     3    26    25    1
     4    25    16    1
     5    16    15    1
     6    15     1    1
     7     1     2    2
     8     1     3   am
     9     3     4    1
    10     4     5    1
    11     5     6    1
    12     6     7    1
    13     7     9    1
    14     9    10   ar
    15    10    11   ar
    16    11    12   ar
    17    12    13   ar
    18    13    14   ar
    19     7     8    1
    20     8    29    1
    21    29    30    1
    22    30    31    1
    23    31    32    1
    24    32    33    1
    25    33    34    1
    26    34    35    1
    27    16    17    1
    28    17    18   ar
    29    18    19   ar
    30    19    20   ar
    31    20    21    1
    32    20    22   ar
    33    22    23    1
    34    22    24   ar
    35     8     3    1
    36    35    30    1
    37    24    17   ar
    38    14     9   ar
@<TRIPOS>MOLECULE
*****
 35 38 0 0 0
SMALL
GASTEIGER

@<TRIPOS>ATOM
      1 C          63.7694   90.1997   12.3916 C.2     1  UNL1        0.2459
      2 O          63.4616   90.0388   10.9324 O.2     1  UNL1       -0.2730
      3 N          63.7874   88.9994   13.2912 N.am    1  UNL1       -0.2781
      4 C          64.0952   89.1603   14.7504 C.3     1  UNL1        0.0935
      5 C          64.1132   87.9600   15.6498 C.3     1  UNL1        0.0219
      6 C          63.8233   86.5989   15.0901 C.3     1  UNL1        0.0078
      7 C          63.5155   86.4380   13.6309 C.3     1  UNL1        0.0419
      8 C          63.4975   87.6383   12.7314 C.3     1  UNL1        0.0953
      9 C          63.2256   85.0769   13.0711 C.ar    1  UNL1       -0.0209
     10 C          63.4966   84.7876   11.6245 C.ar    1  UNL1       -0.0042
     11 C          63.2067   83.4265   11.0647 C.ar    1  UNL1       -0.0003
     12 C          62.6459   82.3547   11.9516 C.ar    1  UNL1       -0.0000
     13 C          62.3750   82.6440   13.3983 C.ar    1  UNL1       -0.0003
     14 C          62.6649   84.0051   13.9580 C.ar    1  UNL1       -0.0042
     15 C          64.0593   91.5608   12.9514 C.3     1  UNL1        0.1773
     16 N          65.4755   92.0448   13.0509 N.pl3   1  UNL1       -0.2973
     17 C          66.0772   92.8393   11.9297 C.ar    1  UNL1        0.0492
     18 C          65.7763   94.3032   11.8022 C.ar    1  UNL1        0.0154
     19 C          66.3779   95.0977   10.6811 C.ar    1  UNL1        0.0135
     20 C          67.2804   94.4282    9.6876 C.ar    1  UNL1        0.0683
     21 CL         67.8820   95.2226    8.5664 Cl      1  UNL1       -0.0814
     22 C          67.5813   92.9642    9.8151 C.ar    1  UNL1        0.0694
     23 CL         68.4839   92.2947    8.8215 Cl      1  UNL1       -0.0813
     24 C          66.9797   92.1698   10.9362 C.ar    1  UNL1        0.0268
     25 C          66.2902   91.7344   14.2715 C.3     1  UNL1        0.1234
     26 C          65.9452   92.3709   15.5853 C.3     1  UNL1        0.1636
     27 C          68.2392   93.5731   15.7907 C.3     1  UNL1        0.1742
     28 O          67.0262   92.9703   16.4351 O.3     1  UNL1       -0.3493
     29 C          63.1897   87.4774   11.2721 C.3     1  UNL1        0.0926
     30 N          61.7792   87.6226   10.7827 N.3     1  UNL1       -0.2670
     31 C          61.3691   86.9997    9.4814 C.3     1  UNL1        0.1047
     32 C          59.9586   87.1448    8.9920 C.3     1  UNL1        0.1595
     33 O          58.9583   87.9129    9.8040 O.3     1  UNL1       -0.3508
     34 C          59.3685   88.5359   11.1054 C.3     1  UNL1        0.1595
     35 C          60.7789   88.3907   11.5948 C.3     1  UNL1        0.1047
@<TRIPOS>BOND
     1    27    28    1
     2    28    26    1
     3    26    25    1
     4    25    16    1
     5    16    15    1
     6    15     1    1
     7     1     2    2
     8     1     3   am
     9     3     4    1
    10     4     5    1
    11     5     6    1
    12     6     7    1
    13     7     9    1
    14     9    10   ar
    15    10    11   ar
    16    11    12   ar
    17    12    13   ar
    18    13    14   ar
    19     7     8    1
    20     8    29    1
    21    29    30    1
    22    30    31    1
    23    31    32    1
    24    32    33    1
    25    33    34    1
    26    34    35    1
    27    16    17    1
    28    17    18   ar
    29    18    19   ar
    30    19    20   ar
    31    20    21    1
    32    20    22   ar
    33    22    23    1
    34    22    24   ar
    35     8     3    1
    36    35    30    1
    37    24    17   ar
    38    14     9   ar
