@<TRIPOS>MOLECULE
*****
 29 32 0 0 0
SMALL
GASTEIGER

@<TRIPOS>ATOM
      1 C          63.6126   90.8701   12.3578 C.ar    1  UNL1        0.1375
      2 C          62.7980   91.0951   11.1186 C.ar    1  UNL1        0.0558
      3 C          61.9689   89.9800   10.5533 C.ar    1  UNL1        0.0887
      4 N          61.1543   90.2050    9.3141 N.ar    1  UNL1       -0.2238
      5 C          60.3253   89.0900    8.7489 C.ar    1  UNL1        0.2000
      6 N          60.3109   87.7501    9.4229 N.ar    1  UNL1       -0.2089
      7 C          61.1256   87.5251   10.6621 C.ar    1  UNL1        0.1353
      8 C          61.9546   88.6401   11.2273 C.ar    1  UNL1        0.0493
      9 C          62.7693   88.4151   12.4666 C.ar    1  UNL1        0.0044
     10 C          63.5983   89.5301   13.0318 C.ar    1  UNL1        0.0280
     11 C          65.6508   92.4715   12.1805 C.3     1  UNL1        0.2525
     12 O          64.4417   91.9851   12.9231 O.3     1  UNL1       -0.4717
     13 N          61.1112   86.1851   11.3361 N.pl3   1  UNL1       -0.2961
     14 H          60.4054   85.9694   11.9877 H       1  UNL1        0.1537
     15 C          62.1721   85.1738   11.0174 C.ar    1  UNL1        0.0780
     16 C          62.6808   85.0377    9.6128 C.ar    1  UNL1        0.0170
     17 C          63.7417   84.0264    9.2940 C.ar    1  UNL1        0.0023
     18 C          64.2941   83.1512   10.3798 C.ar    1  UNL1        0.0138
     19 C          63.7855   83.2873   11.7844 C.ar    1  UNL1        0.0863
     20 CL         64.3378   82.4121   12.8702 Cl      1  UNL1       -0.0799
     21 C          62.7245   84.2987   12.1032 C.ar    1  UNL1        0.1639
     22 F          62.2159   84.4347   13.5077 F       1  UNL1       -0.2020
     23 C          64.4129   89.3052   14.2711 C.3     1  UNL1        0.1023
     24 N          64.0135   88.2392   15.2480 N.3     1  UNL1       -0.2646
     25 C          64.3917   86.8099   14.9946 C.3     1  UNL1        0.1049
     26 C          63.9923   85.7440   15.9714 C.3     1  UNL1        0.1595
     27 O          63.2147   86.1073   17.2017 O.3     1  UNL1       -0.3508
     28 C          62.8366   87.5366   17.4550 C.3     1  UNL1        0.1595
     29 C          63.2360   88.6025   16.4781 C.3     1  UNL1        0.1049
@<TRIPOS>BOND
     1    11    12    1
     2    12     1    1
     3     1     2   ar
     4     2     3   ar
     5     3     4   ar
     6     4     5   ar
     7     5     6   ar
     8     6     7   ar
     9     7    13    1
    10    13    15    1
    11    15    16   ar
    12    16    17   ar
    13    17    18   ar
    14    18    19   ar
    15    19    20    1
    16    19    21   ar
    17    21    22    1
    18     7     8   ar
    19     8     9   ar
    20     9    10   ar
    21    10    23    1
    22    23    24    1
    23    24    25    1
    24    25    26    1
    25    26    27    1
    26    27    28    1
    27    28    29    1
    28    10     1   ar
    29    29    24    1
    30     8     3   ar
    31    21    15   ar
    32    13    14    1
@<TRIPOS>MOLECULE
*****
 29 32 0 0 0
SMALL
GASTEIGER

@<TRIPOS>ATOM
      1 C          67.1086   92.3555   13.8715 C.ar    1  UNL1        0.1375
      2 C          66.2592   91.7693   14.9599 C.ar    1  UNL1        0.0558
      3 C          64.9384   91.1420   14.6250 C.ar    1  UNL1        0.0887
      4 N          64.0889   90.5559   15.7134 N.ar    1  UNL1       -0.2238
      5 C          62.7682   89.9286   15.3785 C.ar    1  UNL1        0.2000
      6 N          62.2970   89.8875   13.9550 N.ar    1  UNL1       -0.2089
      7 C          63.1464   90.4737   12.8665 C.ar    1  UNL1        0.1353
      8 C          64.4671   91.1009   13.2015 C.ar    1  UNL1        0.0493
      9 C          65.3167   91.6871   12.1130 C.ar    1  UNL1        0.0044
     10 C          66.6373   92.3144   12.4480 C.ar    1  UNL1        0.0280
     11 C          68.7604   93.3190   15.6303 C.3     1  UNL1        0.2525
     12 O          68.4294   92.9828   14.2064 O.3     1  UNL1       -0.4717
     13 N          62.6752   90.4325   11.4431 N.pl3   1  UNL1       -0.2961
     14 H          62.8157   91.2098   10.8554 H       1  UNL1        0.1537
     15 C          61.9899   89.2072   10.9150 C.ar    1  UNL1        0.0780
     16 C          60.8538   89.3425    9.9449 C.ar    1  UNL1        0.0170
     17 C          60.1685   88.1172    9.4168 C.ar    1  UNL1        0.0023
     18 C          60.6193   86.7565    9.8588 C.ar    1  UNL1        0.0138
     19 C          61.7553   86.6212   10.8289 C.ar    1  UNL1        0.0863
     20 CL         62.2061   85.2605   11.2709 Cl      1  UNL1       -0.0799
     21 C          62.4407   87.8465   11.3570 C.ar    1  UNL1        0.1639
     22 F          63.5767   87.7112   12.3271 F       1  UNL1       -0.2020
     23 C          67.4869   92.9006   11.3595 C.3     1  UNL1        0.1023
     24 N          67.1142   94.2167   10.7439 N.3     1  UNL1       -0.2646
     25 C          66.2388   95.1752   11.4956 C.3     1  UNL1        0.1049
     26 C          65.8661   96.4913   10.8800 C.3     1  UNL1        0.1595
     27 O          66.3689   96.8490    9.5127 O.3     1  UNL1       -0.3508
     28 C          67.2443   95.8905    8.7611 C.3     1  UNL1        0.1595
     29 C          67.6169   94.5744    9.3767 C.3     1  UNL1        0.1049
@<TRIPOS>BOND
     1    11    12    1
     2    12     1    1
     3     1     2   ar
     4     2     3   ar
     5     3     4   ar
     6     4     5   ar
     7     5     6   ar
     8     6     7   ar
     9     7    13    1
    10    13    15    1
    11    15    16   ar
    12    16    17   ar
    13    17    18   ar
    14    18    19   ar
    15    19    20    1
    16    19    21   ar
    17    21    22    1
    18     7     8   ar
    19     8     9   ar
    20     9    10   ar
    21    10    23    1
    22    23    24    1
    23    24    25    1
    24    25    26    1
    25    26    27    1
    26    27    28    1
    27    28    29    1
    28    10     1   ar
    29    29    24    1
    30     8     3   ar
    31    21    15   ar
    32    13    14    1
@<TRIPOS>MOLECULE
*****
 29 32 0 0 0
SMALL
GASTEIGER

@<TRIPOS>ATOM
      1 C          64.1093   88.8068   14.4051 C.ar    1  UNL1        0.1375
      2 C          64.8790   89.7616   15.2687 C.ar    1  UNL1        0.0558
      3 C          65.3091   91.0897   14.7197 C.ar    1  UNL1        0.0887
      4 N          66.0787   92.0446   15.5833 N.ar    1  UNL1       -0.2238
      5 C          66.5089   93.3725   15.0342 C.ar    1  UNL1        0.2000
      6 N          66.1693   93.7456   13.6216 N.ar    1  UNL1       -0.2089
      7 C          65.3997   92.7907   12.7580 C.ar    1  UNL1        0.1353
      8 C          64.9696   91.4628   13.3070 C.ar    1  UNL1        0.0493
      9 C          64.1999   90.5078   12.4434 C.ar    1  UNL1        0.0044
     10 C          63.7698   89.1799   12.9925 C.ar    1  UNL1        0.0280
     11 C          64.6177   86.3095   14.9102 C.3     1  UNL1        0.2525
     12 O          63.6792   87.4787   14.9541 O.3     1  UNL1       -0.4717
     13 N          65.0602   93.1638   11.3454 N.pl3   1  UNL1       -0.2961
     14 H          64.1197   93.1891   11.0554 H       1  UNL1        0.1537
     15 C          66.1536   93.4985   10.3746 C.ar    1  UNL1        0.0780
     16 C          67.1859   92.4684   10.0233 C.ar    1  UNL1        0.0170
     17 C          68.2793   92.8030    9.0526 C.ar    1  UNL1        0.0023
     18 C          68.3404   94.1677    8.4330 C.ar    1  UNL1        0.0138
     19 C          67.3082   95.1977    8.7841 C.ar    1  UNL1        0.0863
     20 CL         67.3693   96.5624    8.1645 Cl      1  UNL1       -0.0799
     21 C          66.2147   94.8631    9.7550 C.ar    1  UNL1        0.1639
     22 F          65.1825   95.8932   10.1062 F       1  UNL1       -0.2020
     23 C          63.0002   88.2249   12.1288 C.3     1  UNL1        0.1023
     24 N          61.9155   88.7361   11.2276 N.3     1  UNL1       -0.2646
     25 C          61.0205   89.8486   11.6875 C.3     1  UNL1        0.1049
     26 C          59.9358   90.3598   10.7863 C.3     1  UNL1        0.1595
     27 O          59.7461   89.7584    9.4252 O.3     1  UNL1       -0.3508
     28 C          60.6411   88.6460    8.9654 C.3     1  UNL1        0.1595
     29 C          61.7258   88.1348    9.8666 C.3     1  UNL1        0.1049
@<TRIPOS>BOND
     1    11    12    1
     2    12     1    1
     3     1     2   ar
     4     2     3   ar
     5     3     4   ar
     6     4     5   ar
     7     5     6   ar
     8     6     7   ar
     9     7    13    1
    10    13    15    1
    11    15    16   ar
    12    16    17   ar
    13    17    18   ar
    14    18    19   ar
    15    19    20    1
    16    19    21   ar
    17    21    22    1
    18     7     8   ar
    19     8     9   ar
    20     9    10   ar
    21    10    23    1
    22    23    24    1
    23    24    25    1
    24    25    26    1
    25    26    27    1
    26    27    28    1
    27    28    29    1
    28    10     1   ar
    29    29    24    1
    30     8     3   ar
    31    21    15   ar
    32    13    14    1
@<TRIPOS>MOLECULE
*****
 29 32 0 0 0
SMALL
GASTEIGER

@<TRIPOS>ATOM
      1 C          66.4740   92.5745   13.8533 C.ar    1  UNL1        0.1375
      2 C          66.1513   91.3330   14.6308 C.ar    1  UNL1        0.0558
      3 C          65.0843   90.3985   14.1428 C.ar    1  UNL1        0.0887
      4 N          64.7617   89.1570   14.9203 N.ar    1  UNL1       -0.2238
      5 C          63.6947   88.2225   14.4322 C.ar    1  UNL1        0.2000
      6 N          62.9503   88.5295   13.1666 N.ar    1  UNL1       -0.2089
      7 C          63.2729   89.7710   12.3891 C.ar    1  UNL1        0.1353
      8 C          64.3399   90.7055   12.8772 C.ar    1  UNL1        0.0493
      9 C          64.6626   91.9471   12.0997 C.ar    1  UNL1        0.0044
     10 C          65.7296   92.8815   12.5878 C.ar    1  UNL1        0.0280
     11 C          68.0165   93.4282   15.7617 C.3     1  UNL1        0.2525
     12 O          67.5410   93.5090   14.3414 O.3     1  UNL1       -0.4717
     13 N          62.5286   90.0781   11.1236 N.pl3   1  UNL1       -0.2961
     14 H          62.3990   91.0128   10.8431 H       1  UNL1        0.1537
     15 C          61.9816   88.9609   10.2853 C.ar    1  UNL1        0.0780
     16 C          62.6959   87.6428   10.2339 C.ar    1  UNL1        0.0170
     17 C          62.1489   86.5256    9.3956 C.ar    1  UNL1        0.0023
     18 C          60.8878   86.7265    8.6087 C.ar    1  UNL1        0.0138
     19 C          60.1735   88.0445    8.6602 C.ar    1  UNL1        0.0863
     20 CL         58.9124   88.2453    7.8733 Cl      1  UNL1       -0.0799
     21 C          60.7205   89.1617    9.4985 C.ar    1  UNL1        0.1639
     22 F          60.0063   90.4797    9.5499 F       1  UNL1       -0.2020
     23 C          66.0523   94.1231   11.8103 C.3     1  UNL1        0.1023
     24 N          66.7813   94.0213   10.5033 N.3     1  UNL1       -0.2646
     25 C          66.6885   95.1361    9.5039 C.3     1  UNL1        0.1049
     26 C          67.4175   95.0343    8.1969 C.3     1  UNL1        0.1595
     27 O          68.2392   93.8176    7.8893 O.3     1  UNL1       -0.3508
     28 C          68.3319   92.7029    8.8886 C.3     1  UNL1        0.1595
     29 C          67.6030   92.8047   10.1956 C.3     1  UNL1        0.1049
@<TRIPOS>BOND
     1    11    12    1
     2    12     1    1
     3     1     2   ar
     4     2     3   ar
     5     3     4   ar
     6     4     5   ar
     7     5     6   ar
     8     6     7   ar
     9     7    13    1
    10    13    15    1
    11    15    16   ar
    12    16    17   ar
    13    17    18   ar
    14    18    19   ar
    15    19    20    1
    16    19    21   ar
    17    21    22    1
    18     7     8   ar
    19     8     9   ar
    20     9    10   ar
    21    10    23    1
    22    23    24    1
    23    24    25    1
    24    25    26    1
    25    26    27    1
    26    27    28    1
    27    28    29    1
    28    10     1   ar
    29    29    24    1
    30     8     3   ar
    31    21    15   ar
    32    13    14    1
@<TRIPOS>MOLECULE
*****
 29 32 0 0 0
SMALL
GASTEIGER

@<TRIPOS>ATOM
      1 C          63.6015   90.4241   15.1294 C.ar    1  UNL1        0.1375
      2 C          64.5184   91.1829   16.0423 C.ar    1  UNL1        0.0558
      3 C          65.6801   91.9439   15.4753 C.ar    1  UNL1        0.0887
      4 N          66.5970   92.7028   16.3881 N.ar    1  UNL1       -0.2238
      5 C          67.7586   93.4637   15.8211 C.ar    1  UNL1        0.2000
      6 N          68.0034   93.4657   14.3412 N.ar    1  UNL1       -0.2089
      7 C          67.0865   92.7069   13.4283 C.ar    1  UNL1        0.1353
      8 C          65.9248   91.9460   13.9954 C.ar    1  UNL1        0.0493
      9 C          65.0079   91.1870   13.0825 C.ar    1  UNL1        0.0044
     10 C          63.8462   90.4261   13.6495 C.ar    1  UNL1        0.0280
     11 C          62.6649   88.6435   16.7733 C.3     1  UNL1        0.2525
     12 O          62.4398   89.6631   15.6965 O.3     1  UNL1       -0.4717
     13 N          67.3312   92.7089   11.9484 N.pl3   1  UNL1       -0.2961
     14 H          67.7578   91.9325   11.5190 H       1  UNL1        0.1537
     15 C          66.9260   93.8939   11.1229 C.ar    1  UNL1        0.0780
     16 C          66.2156   95.0481   11.7656 C.ar    1  UNL1        0.0170
     17 C          65.8104   96.2331   10.9400 C.ar    1  UNL1        0.0023
     18 C          66.1157   96.2640    9.4718 C.ar    1  UNL1        0.0138
     19 C          66.8261   95.1098    8.8290 C.ar    1  UNL1        0.0863
     20 CL         67.1314   95.1406    7.3607 Cl      1  UNL1       -0.0799
     21 C          67.2313   93.9247    9.6546 C.ar    1  UNL1        0.1639
     22 F          67.9417   92.7706    9.0119 F       1  UNL1       -0.2020
     23 C          62.9293   89.6672   12.7367 C.3     1  UNL1        0.1023
     24 N          63.0398   88.1748   12.6340 N.3     1  UNL1       -0.2646
     25 C          62.3836   87.4507   11.4959 C.3     1  UNL1        0.1049
     26 C          62.4941   85.9583   11.3932 C.3     1  UNL1        0.1595
     27 O          63.2609   85.1900   12.4286 O.3     1  UNL1       -0.3508
     28 C          63.9171   85.9141   13.5665 C.3     1  UNL1        0.1595
     29 C          63.8066   87.4065   13.6692 C.3     1  UNL1        0.1049
@<TRIPOS>BOND
     1    11    12    1
     2    12     1    1
     3     1     2   ar
     4     2     3   ar
     5     3     4   ar
     6     4     5   ar
     7     5     6   ar
     8     6     7   ar
     9     7    13    1
    10    13    15    1
    11    15    16   ar
    12    16    17   ar
    13    17    18   ar
    14    18    19   ar
    15    19    20    1
    16    19    21   ar
    17    21    22    1
    18     7     8   ar
    19     8     9   ar
    20     9    10   ar
    21    10    23    1
    22    23    24    1
    23    24    25    1
    24    25    26    1
    25    26    27    1
    26    27    28    1
    27    28    29    1
    28    10     1   ar
    29    29    24    1
    30     8     3   ar
    31    21    15   ar
    32    13    14    1
@<TRIPOS>MOLECULE
*****
 29 32 0 0 0
SMALL
GASTEIGER

@<TRIPOS>ATOM
      1 C          62.7513   84.8550   11.2599 C.ar    1  UNL1        0.1375
      2 C          61.9632   85.2609   10.0499 C.ar    1  UNL1        0.0558
      3 C          61.4876   86.6761    9.9046 C.ar    1  UNL1        0.0887
      4 N          60.6996   87.0820    8.6946 N.ar    1  UNL1       -0.2238
      5 C          60.2240   88.4972    8.5494 C.ar    1  UNL1        0.2000
      6 N          60.5366   89.5064    9.6141 N.ar    1  UNL1       -0.2089
      7 C          61.3246   89.1006   10.8241 C.ar    1  UNL1        0.1353
      8 C          61.8001   87.6854   10.9694 C.ar    1  UNL1        0.0493
      9 C          62.5883   87.2794   12.1794 C.ar    1  UNL1        0.0044
     10 C          63.0638   85.8643   12.3247 C.ar    1  UNL1        0.0280
     11 C          64.2521   82.8921   10.4572 C.3     1  UNL1        0.2525
     12 O          63.2268   83.4398   11.4052 O.3     1  UNL1       -0.4717
     13 N          61.6371   90.1098   11.8889 N.pl3   1  UNL1       -0.2961
     14 H          60.9855   90.2876   12.6051 H       1  UNL1        0.1537
     15 C          62.9425   90.8482   11.8624 C.ar    1  UNL1        0.0780
     16 C          63.4577   91.4148   10.5725 C.ar    1  UNL1        0.0170
     17 C          64.7630   92.1532   10.5460 C.ar    1  UNL1        0.0023
     18 C          65.5533   92.3251   11.8094 C.ar    1  UNL1        0.0138
     19 C          65.0381   91.7586   13.0992 C.ar    1  UNL1        0.0863
     20 CL         65.8284   91.9305   14.3625 Cl      1  UNL1       -0.0799
     21 C          63.7327   91.0202   13.1257 C.ar    1  UNL1        0.1639
     22 F          63.2176   90.4537   14.4156 F       1  UNL1       -0.2020
     23 C          63.8519   85.4583   13.5348 C.3     1  UNL1        0.1023
     24 N          63.4896   86.0049   14.8838 N.3     1  UNL1       -0.2646
     25 C          63.8636   87.4111   15.2484 C.3     1  UNL1        0.1049
     26 C          63.5013   87.9577   16.5974 C.3     1  UNL1        0.1595
     27 O          62.7650   87.0981   17.5819 O.3     1  UNL1       -0.3508
     28 C          62.3911   85.6920   17.2173 C.3     1  UNL1        0.1595
     29 C          62.7534   85.1454   15.8683 C.3     1  UNL1        0.1049
@<TRIPOS>BOND
     1    11    12    1
     2    12     1    1
     3     1     2   ar
     4     2     3   ar
     5     3     4   ar
     6     4     5   ar
     7     5     6   ar
     8     6     7   ar
     9     7    13    1
    10    13    15    1
    11    15    16   ar
    12    16    17   ar
    13    17    18   ar
    14    18    19   ar
    15    19    20    1
    16    19    21   ar
    17    21    22    1
    18     7     8   ar
    19     8     9   ar
    20     9    10   ar
    21    10    23    1
    22    23    24    1
    23    24    25    1
    24    25    26    1
    25    26    27    1
    26    27    28    1
    27    28    29    1
    28    10     1   ar
    29    29    24    1
    30     8     3   ar
    31    21    15   ar
    32    13    14    1
@<TRIPOS>MOLECULE
*****
 29 32 0 0 0
SMALL
GASTEIGER

@<TRIPOS>ATOM
      1 C          62.6158   84.9742   10.9325 C.ar    1  UNL1        0.1375
      2 C          61.8513   85.7599    9.9086 C.ar    1  UNL1        0.0558
      3 C          61.6008   87.2237   10.1201 C.ar    1  UNL1        0.0887
      4 N          60.8364   88.0093    9.0962 N.ar    1  UNL1       -0.2238
      5 C          60.5859   89.4730    9.3077 C.ar    1  UNL1        0.2000
      6 N          61.1000   90.1511   10.5430 N.ar    1  UNL1       -0.2089
      7 C          61.8644   89.3654   11.5669 C.ar    1  UNL1        0.1353
      8 C          62.1149   87.9017   11.3554 C.ar    1  UNL1        0.0493
      9 C          62.8794   87.1160   12.3793 C.ar    1  UNL1        0.0044
     10 C          63.1298   85.6523   12.1678 C.ar    1  UNL1        0.0280
     11 C          64.0707   83.0594    9.9490 C.3     1  UNL1        0.2525
     12 O          62.8662   83.5104   10.7210 O.3     1  UNL1       -0.4717
     13 N          62.3785   90.0435   12.8022 N.pl3   1  UNL1       -0.2961
     14 H          61.8709   89.9842   13.6437 H       1  UNL1        0.1537
     15 C          63.6658   90.8119   12.7554 C.ar    1  UNL1        0.0780
     16 C          64.0190   91.6101   11.5354 C.ar    1  UNL1        0.0170
     17 C          65.3063   92.3785   11.4886 C.ar    1  UNL1        0.0023
     18 C          66.2405   92.3488   12.6618 C.ar    1  UNL1        0.0138
     19 C          65.8874   91.5508   13.8818 C.ar    1  UNL1        0.0863
     20 CL         66.8216   91.5211   15.0549 Cl      1  UNL1       -0.0799
     21 C          64.6000   90.7823   13.9286 C.ar    1  UNL1        0.1639
     22 F          64.2469   89.9842   15.1485 F       1  UNL1       -0.2020
     23 C          63.8943   84.8665   13.1917 C.3     1  UNL1        0.1023
     24 N          63.4546   83.4789   13.5539 N.3     1  UNL1       -0.2646
     25 C          62.1058   83.2569   14.1718 C.3     1  UNL1        0.1049
     26 C          61.6661   81.8693   14.5341 C.3     1  UNL1        0.1595
     27 O          62.5751   80.7038   14.2784 O.3     1  UNL1       -0.3508
     28 C          63.9237   80.9258   13.6606 C.3     1  UNL1        0.1595
     29 C          64.3635   82.3134   13.2983 C.3     1  UNL1        0.1049
@<TRIPOS>BOND
     1    11    12    1
     2    12     1    1
     3     1     2   ar
     4     2     3   ar
     5     3     4   ar
     6     4     5   ar
     7     5     6   ar
     8     6     7   ar
     9     7    13    1
    10    13    15    1
    11    15    16   ar
    12    16    17   ar
    13    17    18   ar
    14    18    19   ar
    15    19    20    1
    16    19    21   ar
    17    21    22    1
    18     7     8   ar
    19     8     9   ar
    20     9    10   ar
    21    10    23    1
    22    23    24    1
    23    24    25    1
    24    25    26    1
    25    26    27    1
    26    27    28    1
    27    28    29    1
    28    10     1   ar
    29    29    24    1
    30     8     3   ar
    31    21    15   ar
    32    13    14    1
@<TRIPOS>MOLECULE
*****
 29 32 0 0 0
SMALL
GASTEIGER

@<TRIPOS>ATOM
      1 C          60.5821   89.4755   10.2484 C.ar    1  UNL1        0.1375
      2 C          60.1010   88.7176    9.0467 C.ar    1  UNL1        0.0558
      3 C          60.7260   87.4013    8.6905 C.ar    1  UNL1        0.0887
      4 N          60.2449   86.6434    7.4888 N.ar    1  UNL1       -0.2238
      5 C          60.8699   85.3272    7.1327 C.ar    1  UNL1        0.2000
      6 N          61.9760   84.7689    7.9782 N.ar    1  UNL1       -0.2089
      7 C          62.4571   85.5268    9.1798 C.ar    1  UNL1        0.1353
      8 C          61.8321   86.8430    9.5360 C.ar    1  UNL1        0.0493
      9 C          62.3131   87.6010   10.7377 C.ar    1  UNL1        0.0044
     10 C          61.6881   88.9173   11.0939 C.ar    1  UNL1        0.0280
     11 C          58.9211   90.8617   11.6872 C.3     1  UNL1        0.2525
     12 O          59.9570   90.7918   10.6046 O.3     1  UNL1       -0.4717
     13 N          63.5632   84.9685   10.0253 N.pl3   1  UNL1       -0.2961
     14 H          64.4499   85.3962   10.0210 H       1  UNL1        0.1537
     15 C          63.3182   83.7586   10.8775 C.ar    1  UNL1        0.0780
     16 C          63.5155   82.3860   10.3055 C.ar    1  UNL1        0.0170
     17 C          63.2705   81.1761   11.1576 C.ar    1  UNL1        0.0023
     18 C          62.8283   81.3388   12.5817 C.ar    1  UNL1        0.0138
     19 C          62.6311   82.7113   13.1537 C.ar    1  UNL1        0.0863
     20 CL         62.1889   82.8739   14.5777 Cl      1  UNL1       -0.0799
     21 C          62.8760   83.9213   12.3015 C.ar    1  UNL1        0.1639
     22 F          62.6788   85.2938   12.8735 F       1  UNL1       -0.2020
     23 C          62.1692   89.6753   12.2956 C.3     1  UNL1        0.1023
     24 N          63.3121   90.6383   12.1668 N.3     1  UNL1       -0.2646
     25 C          64.1669   90.9514   13.3590 C.3     1  UNL1        0.1049
     26 C          65.3097   91.9144   13.2302 C.3     1  UNL1        0.1595
     27 O          65.5977   92.5642   11.9093 O.3     1  UNL1       -0.3508
     28 C          64.7429   92.2511   10.7172 C.3     1  UNL1        0.1595
     29 C          63.6001   91.2881   10.8459 C.3     1  UNL1        0.1049
@<TRIPOS>BOND
     1    11    12    1
     2    12     1    1
     3     1     2   ar
     4     2     3   ar
     5     3     4   ar
     6     4     5   ar
     7     5     6   ar
     8     6     7   ar
     9     7    13    1
    10    13    15    1
    11    15    16   ar
    12    16    17   ar
    13    17    18   ar
    14    18    19   ar
    15    19    20    1
    16    19    21   ar
    17    21    22    1
    18     7     8   ar
    19     8     9   ar
    20     9    10   ar
    21    10    23    1
    22    23    24    1
    23    24    25    1
    24    25    26    1
    25    26    27    1
    26    27    28    1
    27    28    29    1
    28    10     1   ar
    29    29    24    1
    30     8     3   ar
    31    21    15   ar
    32    13    14    1
@<TRIPOS>MOLECULE
*****
 29 32 0 0 0
SMALL
GASTEIGER

@<TRIPOS>ATOM
      1 C          63.7154   82.7681   12.5130 C.ar    1  UNL1        0.1375
      2 C          63.7870   82.8467   11.0168 C.ar    1  UNL1        0.0558
      3 C          63.2875   84.0691   10.3052 C.ar    1  UNL1        0.0887
      4 N          63.3590   84.1477    8.8090 N.ar    1  UNL1       -0.2238
      5 C          62.8596   85.3700    8.0974 C.ar    1  UNL1        0.2000
      6 N          62.2885   86.5138    8.8821 N.ar    1  UNL1       -0.2089
      7 C          62.2170   86.4352   10.3783 C.ar    1  UNL1        0.1353
      8 C          62.7165   85.2129   11.0898 C.ar    1  UNL1        0.0493
      9 C          62.6449   85.1343   12.5861 C.ar    1  UNL1        0.0044
     10 C          63.1444   83.9119   13.2977 C.ar    1  UNL1        0.0280
     11 C          63.2457   80.4983   13.6866 C.3     1  UNL1        0.2525
     12 O          64.2149   81.5458   13.2246 O.3     1  UNL1       -0.4717
     13 N          61.6460   87.5790   11.1629 N.pl3   1  UNL1       -0.2961
     14 H          60.8193   87.4551   11.6830 H       1  UNL1        0.1537
     15 C          62.3345   88.9116   11.1553 C.ar    1  UNL1        0.0780
     16 C          62.1056   89.8676   10.0222 C.ar    1  UNL1        0.0170
     17 C          62.7941   91.2002   10.0145 C.ar    1  UNL1        0.0023
     18 C          63.7116   91.5769   11.1398 C.ar    1  UNL1        0.0138
     19 C          63.9405   90.6210   12.2729 C.ar    1  UNL1        0.0863
     20 CL         64.8580   90.9976   13.3982 Cl      1  UNL1       -0.0799
     21 C          63.2520   89.2883   12.2806 C.ar    1  UNL1        0.1639
     22 F          63.4809   88.3324   13.4136 F       1  UNL1       -0.2020
     23 C          63.0729   83.8333   14.7939 C.3     1  UNL1        0.1023
     24 N          63.0793   85.0905   15.6122 N.3     1  UNL1       -0.2646
     25 C          64.0506   86.1881   15.2930 C.3     1  UNL1        0.1049
     26 C          64.0570   87.4453   16.1112 C.3     1  UNL1        0.1595
     27 O          63.0920   87.6048   17.2486 O.3     1  UNL1       -0.3508
     28 C          62.1208   86.5072   17.5677 C.3     1  UNL1        0.1595
     29 C          62.1144   85.2501   16.7494 C.3     1  UNL1        0.1049
@<TRIPOS>BOND
     1    11    12    1
     2    12     1    1
     3     1     2   ar
     4     2     3   ar
     5     3     4   ar
     6     4     5   ar
     7     5     6   ar
     8     6     7   ar
     9     7    13    1
    10    13    15    1
    11    15    16   ar
    12    16    17   ar
    13    17    18   ar
    14    18    19   ar
    15    19    20    1
    16    19    21   ar
    17    21    22    1
    18     7     8   ar
    19     8     9   ar
    20     9    10   ar
    21    10    23    1
    22    23    24    1
    23    24    25    1
    24    25    26    1
    25    26    27    1
    26    27    28    1
    27    28    29    1
    28    10     1   ar
    29    29    24    1
    30     8     3   ar
    31    21    15   ar
    32    13    14    1
