@<TRIPOS>MOLECULE
*****
 32 35 0 0 0
SMALL
GASTEIGER

@<TRIPOS>ATOM
      1 C          62.6610   89.5568   11.6322 C.2     1  UNL1       -0.0216
      2 C          63.4121   89.0449   12.8254 C.2     1  UNL1       -0.0076
      3 C          64.1055   90.0066   13.7443 C.2     1  UNL1       -0.0179
      4 C          63.5329   90.2935   15.1005 C.2     1  UNL1       -0.0024
      5 C          64.2263   91.2552   16.0194 C.2     1  UNL1        0.0203
      6 C          65.4925   91.9300   15.5818 C.2     1  UNL1        0.1007
      7 N          66.3915   92.9173   16.2653 N.2     1  UNL1       -0.1482
      8 N          67.5198   93.2406   15.3312 N.2     1  UNL1       -0.1467
      9 C          67.3181   92.4531   14.0706 C.2     1  UNL1        0.1197
     10 C          66.0652   91.6431   14.2255 C.2     1  UNL1        0.0225
     11 C          65.3717   90.6814   13.3067 C.3     1  UNL1        0.0558
     12 C          61.9676   88.5951   10.7133 C.ar    1  UNL1        0.0068
     13 C          62.7572   87.8326    9.6911 C.ar    1  UNL1        0.0028
     14 C          62.0638   86.8709    8.7722 C.ar    1  UNL1        0.0297
     15 C          60.5807   86.6718    8.8755 C.ar    1  UNL1        0.1410
     16 F          59.8873   85.7101    7.9566 F       1  UNL1       -0.2041
     17 C          59.7910   87.4343    9.8977 C.ar    1  UNL1        0.0410
     18 C          60.4844   88.3960   10.8166 C.ar    1  UNL1        0.0596
     19 CL         59.6947   89.1585   11.8388 Cl      1  UNL1       -0.0822
     20 C          63.4697   87.5714   13.0997 C.ar    1  UNL1       -0.0006
     21 C          62.7645   86.6106   12.1888 C.ar    1  UNL1       -0.0000
     22 C          62.8222   85.1372   12.4631 C.ar    1  UNL1        0.0000
     23 C          63.5850   84.6242   13.6485 C.ar    1  UNL1        0.0000
     24 C          64.2902   85.5849   14.5595 C.ar    1  UNL1        0.0000
     25 C          64.2325   87.0584   14.2851 C.ar    1  UNL1       -0.0000
     26 C          63.6427   83.1506   13.9229 C.2     1  UNL1        0.0012
     27 C          63.1109   82.1782   12.9121 C.2     1  UNL1        0.0151
     28 C          63.1685   80.7047   13.1864 C.2     1  UNL1        0.0729
     29 O          63.8621   80.1972   14.4159 O.co2   1  UNL1       -0.5446
     30 O          62.5326   79.7385   12.2313 O.co2   1  UNL1       -0.5446
     31 C          63.4485   91.6245   10.2702 C.3     1  UNL1        0.0050
     32 C          62.6033   91.0304   11.3577 C.3     1  UNL1        0.0264
@<TRIPOS>UNITY_ATOM_ATTR
29 1
charge -1
@<TRIPOS>BOND
     1    31    32    1
     2    32     1    1
     3     1     2    2
     4     2    20    1
     5    20    21   ar
     6    21    22   ar
     7    22    23   ar
     8    23    26    1
     9    26    27    2
    10    27    28    1
    11    28    29   ar
    12    28    30   ar
    13    23    24   ar
    14    24    25   ar
    15     2     3    1
    16     3     4    2
    17     4     5    1
    18     5     6    2
    19     6     7    1
    20     7     8    2
    21     8     9    1
    22     9    10    2
    23    10    11    1
    24     1    12    1
    25    12    13   ar
    26    13    14   ar
    27    14    15   ar
    28    15    16    1
    29    15    17   ar
    30    17    18   ar
    31    18    19    1
    32    25    20   ar
    33    11     3    1
    34    18    12   ar
    35    10     6    1
@<TRIPOS>MOLECULE
*****
 32 35 0 0 0
SMALL
GASTEIGER

@<TRIPOS>ATOM
      1 C          63.6300   85.7592   15.2127 C.2     1  UNL1       -0.0216
      2 C          63.5158   86.9253   14.2761 C.2     1  UNL1       -0.0076
      3 C          63.7978   88.3136   14.7693 C.2     1  UNL1       -0.0179
      4 C          63.0830   88.8396   15.9785 C.2     1  UNL1       -0.0024
      5 C          63.3649   90.2280   16.4716 C.2     1  UNL1        0.0203
      6 C          64.3617   91.0902   15.7555 C.2     1  UNL1        0.1007
      7 N          64.8430   92.4885   16.0067 N.2     1  UNL1       -0.1482
      8 N          65.8553   92.8266   14.9527 N.2     1  UNL1       -0.1467
      9 C          65.9996   91.6373   14.0501 C.2     1  UNL1        0.1197
     10 C          65.0766   90.5641   14.5462 C.2     1  UNL1        0.0225
     11 C          64.7946   89.1759   14.0531 C.3     1  UNL1        0.0558
     12 C          63.3480   84.3709   14.7196 C.ar    1  UNL1        0.0068
     13 C          61.9661   83.7994   14.8371 C.ar    1  UNL1        0.0028
     14 C          61.6842   82.4111   14.3441 C.ar    1  UNL1        0.0297
     15 C          62.7842   81.5943   13.7334 C.ar    1  UNL1        0.1410
     16 F          62.5022   80.2059   13.2404 F       1  UNL1       -0.2041
     17 C          64.1660   82.1657   13.6159 C.ar    1  UNL1        0.0410
     18 C          64.4480   83.5540   14.1089 C.ar    1  UNL1        0.0596
     19 CL         65.8299   84.1254   13.9913 Cl      1  UNL1       -0.0822
     20 C          63.1197   86.7032   12.8466 C.ar    1  UNL1       -0.0006
     21 C          62.7695   87.8726   11.9749 C.ar    1  UNL1       -0.0000
     22 C          62.3734   87.6505   10.5454 C.ar    1  UNL1        0.0000
     23 C          62.3276   86.2588    9.9874 C.ar    1  UNL1        0.0000
     24 C          62.6778   85.0894   10.8590 C.ar    1  UNL1        0.0000
     25 C          63.0739   85.3116   12.2886 C.ar    1  UNL1       -0.0000
     26 C          61.9315   86.0367    8.5577 C.2     1  UNL1        0.0012
     27 C          62.4462   84.8400    7.8141 C.2     1  UNL1        0.0151
     28 C          62.0501   84.6179    6.3846 C.2     1  UNL1        0.0729
     29 O          63.0391   84.8677    5.2848 O.co2   1  UNL1       -0.5446
     30 O          60.6650   84.1458    6.0547 O.co2   1  UNL1       -0.5446
     31 C          62.9714   86.1640   17.6931 C.3     1  UNL1        0.0050
     32 C          64.0260   85.9813   16.6423 C.3     1  UNL1        0.0264
@<TRIPOS>UNITY_ATOM_ATTR
29 1
charge -1
@<TRIPOS>BOND
     1    31    32    1
     2    32     1    1
     3     1     2    2
     4     2    20    1
     5    20    21   ar
     6    21    22   ar
     7    22    23   ar
     8    23    26    1
     9    26    27    2
    10    27    28    1
    11    28    29   ar
    12    28    30   ar
    13    23    24   ar
    14    24    25   ar
    15     2     3    1
    16     3     4    2
    17     4     5    1
    18     5     6    2
    19     6     7    1
    20     7     8    2
    21     8     9    1
    22     9    10    2
    23    10    11    1
    24     1    12    1
    25    12    13   ar
    26    13    14   ar
    27    14    15   ar
    28    15    16    1
    29    15    17   ar
    30    17    18   ar
    31    18    19    1
    32    25    20   ar
    33    11     3    1
    34    18    12   ar
    35    10     6    1
@<TRIPOS>MOLECULE
*****
 32 35 0 0 0
SMALL
GASTEIGER

@<TRIPOS>ATOM
      1 C          64.0304   85.9769   14.0201 C.2     1  UNL1       -0.0216
      2 C          63.5137   87.3191   13.5942 C.2     1  UNL1       -0.0076
      3 C          63.7730   88.5270   14.4450 C.2     1  UNL1       -0.0179
      4 C          63.0472   88.6975   15.7465 C.2     1  UNL1       -0.0024
      5 C          63.3065   89.9054   16.5973 C.2     1  UNL1        0.0203
      6 C          64.2917   90.9428   16.1464 C.2     1  UNL1        0.1007
      7 N          64.7507   92.2283   16.7682 N.2     1  UNL1       -0.1482
      8 N          65.7602   92.8523   15.8509 N.2     1  UNL1       -0.1467
      9 C          65.9251   91.9525   14.6622 C.2     1  UNL1        0.1197
     10 C          65.0175   90.7723   14.8448 C.2     1  UNL1        0.0225
     11 C          64.7581   89.5644   13.9941 C.3     1  UNL1        0.0558
     12 C          63.7712   84.7690   13.1694 C.ar    1  UNL1        0.0068
     13 C          64.6145   84.5112   11.9560 C.ar    1  UNL1        0.0028
     14 C          64.3552   83.3033   11.1053 C.ar    1  UNL1        0.0297
     15 C          63.2526   82.3531   11.4680 C.ar    1  UNL1        0.1410
     16 F          62.9934   81.1452   10.6172 F       1  UNL1       -0.2041
     17 C          62.4094   82.6109   12.6813 C.ar    1  UNL1        0.0410
     18 C          62.6685   83.8187   13.5321 C.ar    1  UNL1        0.0596
     19 CL         61.8253   84.0765   14.7455 Cl      1  UNL1       -0.0822
     20 C          62.7377   87.4534   12.3176 C.ar    1  UNL1       -0.0006
     21 C          62.7859   88.7365   11.5421 C.ar    1  UNL1       -0.0000
     22 C          62.0100   88.8708   10.2655 C.ar    1  UNL1        0.0000
     23 C          61.1857   87.7221    9.7643 C.ar    1  UNL1        0.0000
     24 C          61.1375   86.4390   10.5398 C.ar    1  UNL1        0.0000
     25 C          61.9135   86.3047   11.8165 C.ar    1  UNL1       -0.0000
     26 C          60.4098   87.8564    8.4877 C.2     1  UNL1        0.0012
     27 C          60.0407   89.2165    7.9740 C.2     1  UNL1        0.0151
     28 C          59.2647   89.3509    6.6974 C.2     1  UNL1        0.0729
     29 O          59.8477   90.1086    5.5415 O.co2   1  UNL1       -0.5446
     30 O          57.9056   88.7276    6.5766 O.co2   1  UNL1       -0.5446
     31 C          64.0964   85.5044   16.5741 C.3     1  UNL1        0.0050
     32 C          64.8064   85.8425   15.2968 C.3     1  UNL1        0.0264
@<TRIPOS>UNITY_ATOM_ATTR
29 1
charge -1
@<TRIPOS>BOND
     1    31    32    1
     2    32     1    1
     3     1     2    2
     4     2    20    1
     5    20    21   ar
     6    21    22   ar
     7    22    23   ar
     8    23    26    1
     9    26    27    2
    10    27    28    1
    11    28    29   ar
    12    28    30   ar
    13    23    24   ar
    14    24    25   ar
    15     2     3    1
    16     3     4    2
    17     4     5    1
    18     5     6    2
    19     6     7    1
    20     7     8    2
    21     8     9    1
    22     9    10    2
    23    10    11    1
    24     1    12    1
    25    12    13   ar
    26    13    14   ar
    27    14    15   ar
    28    15    16    1
    29    15    17   ar
    30    17    18   ar
    31    18    19    1
    32    25    20   ar
    33    11     3    1
    34    18    12   ar
    35    10     6    1
@<TRIPOS>MOLECULE
*****
 32 35 0 0 0
SMALL
GASTEIGER

@<TRIPOS>ATOM
      1 C          63.4473   86.5580   13.2690 C.2     1  UNL1       -0.0216
      2 C          62.6302   85.6695   12.3786 C.2     1  UNL1       -0.0076
      3 C          62.5299   84.2018   12.6718 C.2     1  UNL1       -0.0179
      4 C          62.1252   83.7360   14.0389 C.2     1  UNL1       -0.0024
      5 C          62.0250   82.2683   14.3321 C.2     1  UNL1        0.0203
      6 C          62.3295   81.2665   13.2581 C.2     1  UNL1        0.1007
      7 N          62.3166   79.7666   13.2518 N.2     1  UNL1       -0.1482
      8 N          62.7133   79.3054   11.8807 N.2     1  UNL1       -0.1467
      9 C          62.9714   80.5203   11.0396 C.2     1  UNL1        0.1197
     10 C          62.7342   81.7324   11.8909 C.2     1  UNL1        0.0225
     11 C          62.8344   83.2000   11.5978 C.3     1  UNL1        0.0558
     12 C          63.5476   88.0257   12.9759 C.ar    1  UNL1        0.0068
     13 C          63.1974   88.5438   11.6125 C.ar    1  UNL1        0.0028
     14 C          63.2977   90.0115   11.3194 C.ar    1  UNL1        0.0297
     15 C          63.7481   90.9610   12.3897 C.ar    1  UNL1        0.1410
     16 F          63.8484   92.4287   12.0965 F       1  UNL1       -0.2041
     17 C          64.0983   90.4429   13.7530 C.ar    1  UNL1        0.0410
     18 C          63.9981   88.9752   14.0463 C.ar    1  UNL1        0.0596
     19 CL         64.3483   88.4571   15.4096 Cl      1  UNL1       -0.0822
     20 C          61.9133   86.2486   11.1952 C.ar    1  UNL1       -0.0006
     21 C          60.7378   87.1573   11.4012 C.ar    1  UNL1       -0.0000
     22 C          60.0209   87.7364   10.2178 C.ar    1  UNL1        0.0000
     23 C          60.4796   87.4068    8.8281 C.ar    1  UNL1        0.0000
     24 C          61.6551   86.4982    8.6220 C.ar    1  UNL1        0.0000
     25 C          62.3720   85.9191    9.8056 C.ar    1  UNL1       -0.0000
     26 C          59.7627   87.9860    7.6446 C.2     1  UNL1        0.0012
     27 C          59.8370   89.4587    7.3697 C.2     1  UNL1        0.0151
     28 C          59.1201   90.0378    6.1862 C.2     1  UNL1        0.0729
     29 O          59.9022   90.6371    5.0551 O.co2   1  UNL1       -0.5446
     30 O          57.6211   90.0177    6.1338 O.co2   1  UNL1       -0.5446
     31 C          65.4158   85.1768   14.2527 C.3     1  UNL1        0.0050
     32 C          64.1642   85.9790   14.4526 C.3     1  UNL1        0.0264
@<TRIPOS>UNITY_ATOM_ATTR
29 1
charge -1
@<TRIPOS>BOND
     1    31    32    1
     2    32     1    1
     3     1     2    2
     4     2    20    1
     5    20    21   ar
     6    21    22   ar
     7    22    23   ar
     8    23    26    1
     9    26    27    2
    10    27    28    1
    11    28    29   ar
    12    28    30   ar
    13    23    24   ar
    14    24    25   ar
    15     2     3    1
    16     3     4    2
    17     4     5    1
    18     5     6    2
    19     6     7    1
    20     7     8    2
    21     8     9    1
    22     9    10    2
    23    10    11    1
    24     1    12    1
    25    12    13   ar
    26    13    14   ar
    27    14    15   ar
    28    15    16    1
    29    15    17   ar
    30    17    18   ar
    31    18    19    1
    32    25    20   ar
    33    11     3    1
    34    18    12   ar
    35    10     6    1
@<TRIPOS>MOLECULE
*****
 32 35 0 0 0
SMALL
GASTEIGER

@<TRIPOS>ATOM
      1 C          63.5157   86.4312   12.7971 C.2     1  UNL1       -0.0216
      2 C          62.7096   85.5962   11.8469 C.2     1  UNL1       -0.0076
      3 C          62.7320   84.1004   11.9585 C.2     1  UNL1       -0.0179
      4 C          63.4628   83.2829   10.9351 C.2     1  UNL1       -0.0024
      5 C          63.4852   81.7872   11.0466 C.2     1  UNL1        0.0203
      6 C          62.7768   81.1091   12.1816 C.2     1  UNL1        0.1007
      7 N          62.6260   79.6629   12.5498 N.2     1  UNL1       -0.1482
      8 N          61.8019   79.5866   13.8009 N.2     1  UNL1       -0.1467
      9 C          61.4435   80.9857   14.2059 C.2     1  UNL1        0.1197
     10 C          62.0460   81.9267   13.2051 C.2     1  UNL1        0.0225
     11 C          62.0236   83.4224   13.0935 C.3     1  UNL1        0.0558
     12 C          63.4933   87.9269   12.6857 C.ar    1  UNL1        0.0068
     13 C          63.0526   88.5772   11.4078 C.ar    1  UNL1        0.0028
     14 C          63.0302   90.0729   11.2964 C.ar    1  UNL1        0.0297
     15 C          63.4485   90.9182   12.4627 C.ar    1  UNL1        0.1410
     16 F          63.4261   92.4140   12.3512 F       1  UNL1       -0.2041
     17 C          63.8892   90.2680   13.7405 C.ar    1  UNL1        0.0410
     18 C          63.9117   88.7723   13.8521 C.ar    1  UNL1        0.0596
     19 CL         64.3524   88.1220   15.1298 Cl      1  UNL1       -0.0822
     20 C          61.8811   86.2568   10.7853 C.ar    1  UNL1       -0.0006
     21 C          62.2446   86.0919    9.3393 C.ar    1  UNL1       -0.0000
     22 C          61.4162   86.7525    8.2777 C.ar    1  UNL1        0.0000
     23 C          60.2241   87.5780    8.6620 C.ar    1  UNL1        0.0000
     24 C          59.8606   87.7429   10.1079 C.ar    1  UNL1        0.0000
     25 C          60.6891   87.0823   11.1695 C.ar    1  UNL1       -0.0000
     26 C          59.3956   88.2387    7.6002 C.2     1  UNL1        0.0012
     27 C          59.8104   89.5687    7.0445 C.2     1  UNL1        0.0151
     28 C          58.9820   90.2293    5.9829 C.2     1  UNL1        0.0729
     29 O          57.4923   90.0533    5.9761 O.co2   1  UNL1       -0.5446
     30 O          59.6432   91.0661    4.9279 O.co2   1  UNL1       -0.5446
     31 C          63.6906   85.2488   15.1040 C.3     1  UNL1        0.0050
     32 C          64.3442   85.7706   13.8589 C.3     1  UNL1        0.0264
@<TRIPOS>UNITY_ATOM_ATTR
29 1
charge -1
@<TRIPOS>BOND
     1    31    32    1
     2    32     1    1
     3     1     2    2
     4     2    20    1
     5    20    21   ar
     6    21    22   ar
     7    22    23   ar
     8    23    26    1
     9    26    27    2
    10    27    28    1
    11    28    29   ar
    12    28    30   ar
    13    23    24   ar
    14    24    25   ar
    15     2     3    1
    16     3     4    2
    17     4     5    1
    18     5     6    2
    19     6     7    1
    20     7     8    2
    21     8     9    1
    22     9    10    2
    23    10    11    1
    24     1    12    1
    25    12    13   ar
    26    13    14   ar
    27    14    15   ar
    28    15    16    1
    29    15    17   ar
    30    17    18   ar
    31    18    19    1
    32    25    20   ar
    33    11     3    1
    34    18    12   ar
    35    10     6    1
