@<TRIPOS>MOLECULE
*****
 30 33 0 0 0
SMALL
GASTEIGER

@<TRIPOS>ATOM
      1 C          63.5407   82.8917   10.6009 C.ar    1  UNL1        0.1737
      2 C          63.3125   81.4155   10.4647 C.ar    1  UNL1        0.0401
      3 C          62.9465   80.5989   11.6686 C.ar    1  UNL1        0.0046
      4 C          62.8087   81.2586   13.0086 C.ar    1  UNL1        0.0217
      5 C          63.0369   82.7348   13.1448 C.ar    1  UNL1        0.1426
      6 C          63.4029   83.5514   11.9410 C.ar    1  UNL1        0.1895
      7 O          63.6311   85.0277   12.0772 O.3     1  UNL1       -0.4686
      8 C          63.4933   85.6874   13.4173 C.3     1  UNL1        0.2104
      9 C          63.1274   84.8708   14.6211 C.3     1  UNL1        0.1779
     10 C          62.9896   85.5306   15.9612 C.3     1  UNL1        0.0300
     11 S          62.8992   83.3946   14.4849 S.O2    1  UNL1        0.0138
     12 O          62.5853   81.9763   14.8593 O.2     1  UNL1       -0.1685
     13 O          62.6524   83.5618   15.9551 O.2     1  UNL1       -0.1685
     14 C          63.7215   87.1637   13.5535 C.ar    1  UNL1        0.0191
     15 C          63.2138   88.1016   12.4987 C.ar    1  UNL1        0.0023
     16 C          63.4420   89.5778   12.6349 C.ar    1  UNL1        0.0367
     17 C          64.1778   90.1162   13.8259 C.ar    1  UNL1        0.1385
     18 C          64.6856   89.1783   14.8807 C.ar    1  UNL1        0.0367
     19 C          64.4574   87.7021   14.7445 C.ar    1  UNL1        0.0023
     20 O          64.4060   91.5925   13.9621 O.3     1  UNL1       -0.4754
     21 C          65.7484   92.1076   14.3897 C.3     1  UNL1        0.2068
     22 C          66.6976   92.6642   13.3703 C.3     1  UNL1        0.0646
     23 C          66.1753   93.4838   12.2278 C.3     1  UNL1        0.0759
     24 N          66.9278   93.5283   10.9310 N.3     1  UNL1       -0.2726
     25 C          67.6981   92.3957   10.3193 C.3     1  UNL1        0.0721
     26 C          68.2885   92.8805    9.0284 C.3     1  UNL1        0.0188
     27 C          67.8832   94.3128    8.8423 C.3     1  UNL1        0.0188
     28 C          67.0422   94.7130   10.0182 C.3     1  UNL1        0.0721
     29 C          63.0431   84.8629    8.9832 C.3     1  UNL1        0.2526
     30 O          63.9066   83.7083    9.3970 O.3     1  UNL1       -0.4683
@<TRIPOS>BOND
     1    29    30    1
     2    30     1    1
     3     1     2   ar
     4     2     3   ar
     5     3     4   ar
     6     4     5   ar
     7     5     6   ar
     8     6     7    1
     9     7     8    1
    10     8    14    1
    11    14    15   ar
    12    15    16   ar
    13    16    17   ar
    14    17    20    1
    15    20    21    1
    16    21    22    1
    17    22    23    1
    18    23    24    1
    19    24    25    1
    20    25    26    1
    21    26    27    1
    22    27    28    1
    23    17    18   ar
    24    18    19   ar
    25     8     9    1
    26     9    10    1
    27     9    11    1
    28    11    12    2
    29    11    13    2
    30     6     1   ar
    31    19    14   ar
    32    11     5    1
    33    28    24    1
@<TRIPOS>MOLECULE
*****
 30 33 0 0 0
SMALL
GASTEIGER

@<TRIPOS>ATOM
      1 C          62.5543   85.3231    8.5433 C.ar    1  UNL1        0.1737
      2 C          61.7817   84.6367    7.4562 C.ar    1  UNL1        0.0401
      3 C          60.5075   85.2412    6.9452 C.ar    1  UNL1        0.0046
      4 C          60.0060   86.5321    7.5214 C.ar    1  UNL1        0.0217
      5 C          60.7786   87.2185    8.6085 C.ar    1  UNL1        0.1426
      6 C          62.0528   86.6140    9.1194 C.ar    1  UNL1        0.1895
      7 O          62.8254   87.3005   10.2066 O.3     1  UNL1       -0.4686
      8 C          62.3239   88.5914   10.7827 C.3     1  UNL1        0.2104
      9 C          61.0497   89.1959   10.2718 C.3     1  UNL1        0.1779
     10 C          60.5482   90.4869   10.8479 C.3     1  UNL1        0.0300
     11 S          60.2771   88.5095    9.1847 S.O2    1  UNL1        0.0138
     12 O          59.2004   88.2387    8.1759 O.2     1  UNL1       -0.1685
     13 O          59.4016   89.7064    9.4105 O.2     1  UNL1       -0.1685
     14 C          63.0965   89.2779   11.8699 C.ar    1  UNL1        0.0191
     15 C          63.4467   90.7305   11.7386 C.ar    1  UNL1        0.0023
     16 C          64.2193   91.4170   12.8256 C.ar    1  UNL1        0.0367
     17 C          64.6417   90.6508   14.0440 C.ar    1  UNL1        0.1385
     18 C          64.2916   89.1982   14.1754 C.ar    1  UNL1        0.0367
     19 C          63.5190   88.5117   13.0883 C.ar    1  UNL1        0.0023
     20 O          65.4144   91.3373   15.1312 O.3     1  UNL1       -0.4754
     21 C          66.8781   91.6120   14.9523 C.3     1  UNL1        0.2068
     22 C          67.3449   92.9948   14.6059 C.3     1  UNL1        0.0646
     23 C          66.5314   93.8514   13.6816 C.3     1  UNL1        0.0759
     24 N          66.7427   93.7658   12.1991 N.3     1  UNL1       -0.2726
     25 C          67.2618   92.5745   11.4498 C.3     1  UNL1        0.0721
     26 C          67.3121   92.9288    9.9931 C.3     1  UNL1        0.0188
     27 C          66.8241   94.3392    9.8421 C.3     1  UNL1        0.0188
     28 C          66.4722   94.8565   11.2055 C.3     1  UNL1        0.0721
     29 C          63.7805   83.6052   10.0583 C.3     1  UNL1        0.2526
     30 O          63.8285   84.7186    9.0543 O.3     1  UNL1       -0.4683
@<TRIPOS>BOND
     1    29    30    1
     2    30     1    1
     3     1     2   ar
     4     2     3   ar
     5     3     4   ar
     6     4     5   ar
     7     5     6   ar
     8     6     7    1
     9     7     8    1
    10     8    14    1
    11    14    15   ar
    12    15    16   ar
    13    16    17   ar
    14    17    20    1
    15    20    21    1
    16    21    22    1
    17    22    23    1
    18    23    24    1
    19    24    25    1
    20    25    26    1
    21    26    27    1
    22    27    28    1
    23    17    18   ar
    24    18    19   ar
    25     8     9    1
    26     9    10    1
    27     9    11    1
    28    11    12    2
    29    11    13    2
    30     6     1   ar
    31    19    14   ar
    32    11     5    1
    33    28    24    1
@<TRIPOS>MOLECULE
*****
 30 33 0 0 0
SMALL
GASTEIGER

@<TRIPOS>ATOM
      1 C          67.1367   92.6946   13.5278 C.ar    1  UNL1        0.1737
      2 C          67.9273   93.3809   14.6020 C.ar    1  UNL1        0.0401
      3 C          67.4740   93.3072   16.0300 C.ar    1  UNL1        0.0046
      4 C          66.2301   92.5472   16.3837 C.ar    1  UNL1        0.0217
      5 C          65.4395   91.8610   15.3095 C.ar    1  UNL1        0.1426
      6 C          65.8928   91.9346   13.8816 C.ar    1  UNL1        0.1895
      7 O          65.1022   91.2483   12.8073 O.3     1  UNL1       -0.4686
      8 C          63.8583   90.4883   13.1611 C.3     1  UNL1        0.2104
      9 C          63.4050   90.4147   14.5891 C.3     1  UNL1        0.1779
     10 C          62.1611   89.6547   14.9428 C.3     1  UNL1        0.0300
     11 S          64.1956   91.1009   15.6633 S.O2    1  UNL1        0.0138
     12 O          64.6034   91.5812   17.0246 O.2     1  UNL1       -0.1685
     13 O          63.0933   90.5078   16.4898 O.2     1  UNL1       -0.1685
     14 C          63.0677   89.8020   12.0869 C.ar    1  UNL1        0.0191
     15 C          62.3450   90.6136   11.0529 C.ar    1  UNL1        0.0023
     16 C          61.5544   89.9274    9.9788 C.ar    1  UNL1        0.0367
     17 C          61.4864   88.4295    9.9385 C.ar    1  UNL1        0.1385
     18 C          62.2091   87.6179   10.9724 C.ar    1  UNL1        0.0367
     19 C          62.9997   88.3041   12.0466 C.ar    1  UNL1        0.0023
     20 O          60.6958   87.7432    8.8643 O.3     1  UNL1       -0.4754
     21 C          60.6426   86.2450    8.8133 C.3     1  UNL1        0.2068
     22 C          61.6900   85.4826    8.0572 C.3     1  UNL1        0.0646
     23 C          63.0519   85.2858    8.6544 C.3     1  UNL1        0.0759
     24 N          63.2371   84.3407    9.8043 N.3     1  UNL1       -0.2726
     25 C          62.5031   84.3882   11.1117 C.3     1  UNL1        0.0721
     26 C          63.0012   83.2590   11.9643 C.3     1  UNL1        0.0188
     27 C          64.0431   82.5136   11.1839 C.3     1  UNL1        0.0188
     28 C          64.1889   83.1821    9.8490 C.3     1  UNL1        0.0721
     29 C          66.8319   93.6076   11.1146 C.3     1  UNL1        0.2526
     30 O          67.5900   92.7683   12.0998 O.3     1  UNL1       -0.4683
@<TRIPOS>BOND
     1    29    30    1
     2    30     1    1
     3     1     2   ar
     4     2     3   ar
     5     3     4   ar
     6     4     5   ar
     7     5     6   ar
     8     6     7    1
     9     7     8    1
    10     8    14    1
    11    14    15   ar
    12    15    16   ar
    13    16    17   ar
    14    17    20    1
    15    20    21    1
    16    21    22    1
    17    22    23    1
    18    23    24    1
    19    24    25    1
    20    25    26    1
    21    26    27    1
    22    27    28    1
    23    17    18   ar
    24    18    19   ar
    25     8     9    1
    26     9    10    1
    27     9    11    1
    28    11    12    2
    29    11    13    2
    30     6     1   ar
    31    19    14   ar
    32    11     5    1
    33    28    24    1
@<TRIPOS>MOLECULE
*****
 30 33 0 0 0
SMALL
GASTEIGER

@<TRIPOS>ATOM
      1 C          62.5367   84.2314   14.4358 C.ar    1  UNL1        0.1737
      2 C          63.2612   83.1566   15.1907 C.ar    1  UNL1        0.0401
      3 C          64.1681   82.2096   14.4622 C.ar    1  UNL1        0.0046
      4 C          64.3505   82.3373   12.9789 C.ar    1  UNL1        0.0217
      5 C          63.6260   83.4120   12.2240 C.ar    1  UNL1        0.1426
      6 C          62.7191   84.3591   12.9524 C.ar    1  UNL1        0.1895
      7 O          61.9945   85.4339   12.1974 O.3     1  UNL1       -0.4686
      8 C          62.1769   85.5615   10.7141 C.3     1  UNL1        0.2104
      9 C          63.0838   84.6145    9.9856 C.3     1  UNL1        0.1779
     10 C          63.2661   84.7422    8.5022 C.3     1  UNL1        0.0300
     11 S          63.8083   83.5397   10.7405 S.O2    1  UNL1        0.0138
     12 O          64.7043   82.3680   11.0132 O.2     1  UNL1       -0.1685
     13 O          64.3018   83.2605    9.3518 O.2     1  UNL1       -0.1685
     14 C          61.4523   86.6363    9.9591 C.ar    1  UNL1        0.0191
     15 C          61.7767   88.0789   10.2114 C.ar    1  UNL1        0.0023
     16 C          61.0522   89.1537    9.4565 C.ar    1  UNL1        0.0367
     17 C          60.0034   88.7858    8.4492 C.ar    1  UNL1        0.1385
     18 C          59.6790   87.3432    8.1969 C.ar    1  UNL1        0.0367
     19 C          60.4035   86.2685    8.9518 C.ar    1  UNL1        0.0023
     20 O          59.2788   89.8606    7.6942 O.3     1  UNL1       -0.4754
     21 C          59.4741   89.9988    6.2134 C.3     1  UNL1        0.2068
     22 C          58.4942   90.7895    5.3982 C.3     1  UNL1        0.0646
     23 C          58.8772   92.1388    4.8665 C.3     1  UNL1        0.0759
     24 N          60.0443   92.2738    3.9340 N.3     1  UNL1       -0.2726
     25 C          60.0679   93.0648    2.6597 C.3     1  UNL1        0.0721
     26 C          61.4309   92.9213    2.0502 C.3     1  UNL1        0.0188
     27 C          62.2499   92.0417    2.9478 C.3     1  UNL1        0.0188
     28 C          61.3929   91.6415    4.1121 C.3     1  UNL1        0.0721
     29 C          61.9511   85.5930   16.5695 C.3     1  UNL1        0.2526
     30 O          61.6298   85.1784   15.1642 O.3     1  UNL1       -0.4683
@<TRIPOS>BOND
     1    29    30    1
     2    30     1    1
     3     1     2   ar
     4     2     3   ar
     5     3     4   ar
     6     4     5   ar
     7     5     6   ar
     8     6     7    1
     9     7     8    1
    10     8    14    1
    11    14    15   ar
    12    15    16   ar
    13    16    17   ar
    14    17    20    1
    15    20    21    1
    16    21    22    1
    17    22    23    1
    18    23    24    1
    19    24    25    1
    20    25    26    1
    21    26    27    1
    22    27    28    1
    23    17    18   ar
    24    18    19   ar
    25     8     9    1
    26     9    10    1
    27     9    11    1
    28    11    12    2
    29    11    13    2
    30     6     1   ar
    31    19    14   ar
    32    11     5    1
    33    28    24    1
@<TRIPOS>MOLECULE
*****
 30 33 0 0 0
SMALL
GASTEIGER

@<TRIPOS>ATOM
      1 C          62.2297   82.7328   14.4817 C.ar    1  UNL1        0.1737
      2 C          62.2237   81.2399   14.6272 C.ar    1  UNL1        0.0401
      3 C          62.5175   80.3696   13.4414 C.ar    1  UNL1        0.0046
      4 C          62.8172   80.9921   12.1100 C.ar    1  UNL1        0.0217
      5 C          62.8231   82.4850   11.9645 C.ar    1  UNL1        0.1426
      6 C          62.5293   83.3553   13.1503 C.ar    1  UNL1        0.1895
      7 O          62.5353   84.8483   13.0048 O.3     1  UNL1       -0.4686
      8 C          62.8350   85.4708   11.6734 C.3     1  UNL1        0.2104
      9 C          63.1287   84.6005   10.4876 C.3     1  UNL1        0.1779
     10 C          63.4284   85.2231    9.1561 C.3     1  UNL1        0.0300
     11 S          63.1228   83.1076   10.6331 S.O2    1  UNL1        0.0138
     12 O          63.2344   81.6558   10.2728 O.2     1  UNL1       -0.1685
     13 O          63.4613   83.2260    9.1765 O.2     1  UNL1       -0.1685
     14 C          62.8409   86.9638   11.5278 C.ar    1  UNL1        0.0191
     15 C          62.2981   87.5979   10.2815 C.ar    1  UNL1        0.0023
     16 C          62.3041   89.0908   10.1359 C.ar    1  UNL1        0.0367
     17 C          62.8527   89.9495   11.2366 C.ar    1  UNL1        0.1385
     18 C          63.3955   89.3153   12.4829 C.ar    1  UNL1        0.0367
     19 C          63.3896   87.8225   12.6285 C.ar    1  UNL1        0.0023
     20 O          62.8587   91.4425   11.0910 O.3     1  UNL1       -0.4754
     21 C          64.1601   92.1801   10.9807 C.3     1  UNL1        0.2068
     22 C          64.9778   92.4463   12.2097 C.3     1  UNL1        0.0646
     23 C          66.2410   93.2491   12.1107 C.3     1  UNL1        0.0759
     24 N          66.9902   93.3115   10.8128 N.3     1  UNL1       -0.2726
     25 C          67.8432   92.2219   10.2338 C.3     1  UNL1        0.0721
     26 C          68.3983   92.7114    8.9291 C.3     1  UNL1        0.0188
     27 C          67.8883   94.1037    8.7016 C.3     1  UNL1        0.0188
     28 C          67.0181   94.4745    9.8658 C.3     1  UNL1        0.0721
     29 C          62.8836   84.7033   16.0435 C.3     1  UNL1        0.2526
     30 O          61.9359   83.6031   15.6675 O.3     1  UNL1       -0.4683
@<TRIPOS>BOND
     1    29    30    1
     2    30     1    1
     3     1     2   ar
     4     2     3   ar
     5     3     4   ar
     6     4     5   ar
     7     5     6   ar
     8     6     7    1
     9     7     8    1
    10     8    14    1
    11    14    15   ar
    12    15    16   ar
    13    16    17   ar
    14    17    20    1
    15    20    21    1
    16    21    22    1
    17    22    23    1
    18    23    24    1
    19    24    25    1
    20    25    26    1
    21    26    27    1
    22    27    28    1
    23    17    18   ar
    24    18    19   ar
    25     8     9    1
    26     9    10    1
    27     9    11    1
    28    11    12    2
    29    11    13    2
    30     6     1   ar
    31    19    14   ar
    32    11     5    1
    33    28    24    1
@<TRIPOS>MOLECULE
*****
 30 33 0 0 0
SMALL
GASTEIGER

@<TRIPOS>ATOM
      1 C          62.1694   82.8078   14.4993 C.ar    1  UNL1        0.1737
      2 C          62.1825   81.3156   14.6510 C.ar    1  UNL1        0.0401
      3 C          62.5091   80.4449   13.4741 C.ar    1  UNL1        0.0046
      4 C          62.8226   81.0664   12.1454 C.ar    1  UNL1        0.0217
      5 C          62.8095   82.5586   11.9937 C.ar    1  UNL1        0.1426
      6 C          62.4829   83.4293   13.1707 C.ar    1  UNL1        0.1895
      7 O          62.4698   84.9216   13.0189 O.3     1  UNL1       -0.4686
      8 C          62.7833   85.5432   11.6903 C.3     1  UNL1        0.2104
      9 C          63.1099   84.6725   10.5133 C.3     1  UNL1        0.1779
     10 C          63.4234   85.2941    9.1846 C.3     1  UNL1        0.0300
     11 S          63.1230   83.1802   10.6650 S.O2    1  UNL1        0.0138
     12 O          63.2617   81.7288   10.3128 O.2     1  UNL1       -0.1685
     13 O          63.4847   83.2977    9.2140 O.2     1  UNL1       -0.1685
     14 C          62.7702   87.0355   11.5385 C.ar    1  UNL1        0.0191
     15 C          62.1743   87.6593   10.3115 C.ar    1  UNL1        0.0023
     16 C          62.1612   89.1515   10.1597 C.ar    1  UNL1        0.0367
     17 C          62.7440   90.0199   11.2350 C.ar    1  UNL1        0.1385
     18 C          63.3400   89.3960   12.4620 C.ar    1  UNL1        0.0367
     19 C          63.3531   87.9038   12.6138 C.ar    1  UNL1        0.0023
     20 O          62.7309   91.5122   11.0832 O.3     1  UNL1       -0.4754
     21 C          63.8600   92.2043   10.3789 C.3     1  UNL1        0.2068
     22 C          65.2393   92.1792   10.9680 C.3     1  UNL1        0.0646
     23 C          65.7018   93.3064   11.8429 C.3     1  UNL1        0.0759
     24 N          66.5337   93.0201   13.0578 N.3     1  UNL1       -0.2726
     25 C          66.5691   93.8377   14.3149 C.3     1  UNL1        0.0721
     26 C          67.5336   93.1889   15.2630 C.3     1  UNL1        0.0188
     27 C          68.0943   91.9702   14.5918 C.3     1  UNL1        0.0188
     28 C          67.4764   91.8659   13.2289 C.3     1  UNL1        0.0721
     29 C          62.8348   84.6973   16.1537 C.3     1  UNL1        0.2526
     30 O          61.8428   83.6785   15.6763 O.3     1  UNL1       -0.4683
@<TRIPOS>BOND
     1    29    30    1
     2    30     1    1
     3     1     2   ar
     4     2     3   ar
     5     3     4   ar
     6     4     5   ar
     7     5     6   ar
     8     6     7    1
     9     7     8    1
    10     8    14    1
    11    14    15   ar
    12    15    16   ar
    13    16    17   ar
    14    17    20    1
    15    20    21    1
    16    21    22    1
    17    22    23    1
    18    23    24    1
    19    24    25    1
    20    25    26    1
    21    26    27    1
    22    27    28    1
    23    17    18   ar
    24    18    19   ar
    25     8     9    1
    26     9    10    1
    27     9    11    1
    28    11    12    2
    29    11    13    2
    30     6     1   ar
    31    19    14   ar
    32    11     5    1
    33    28    24    1
@<TRIPOS>MOLECULE
*****
 30 33 0 0 0
SMALL
GASTEIGER

@<TRIPOS>ATOM
      1 C          63.6360   83.9969   13.8970 C.ar    1  UNL1        0.1737
      2 C          63.1586   82.6422   13.4651 C.ar    1  UNL1        0.0401
      3 C          62.3516   82.4966   12.2090 C.ar    1  UNL1        0.0046
      4 C          62.0221   83.7058   11.3849 C.ar    1  UNL1        0.0217
      5 C          62.4995   85.0606   11.8169 C.ar    1  UNL1        0.1426
      6 C          63.3064   85.2061   13.0729 C.ar    1  UNL1        0.1895
      7 O          63.7838   86.5610   13.5048 O.3     1  UNL1       -0.4686
      8 C          63.4543   87.7702   12.6807 C.3     1  UNL1        0.2104
      9 C          62.6473   87.6246   11.4247 C.3     1  UNL1        0.1779
     10 C          62.3178   88.8339   10.6006 C.3     1  UNL1        0.0300
     11 S          62.1699   86.2699   10.9928 S.O2    1  UNL1        0.0138
     12 O          61.4969   85.2068   10.1761 O.2     1  UNL1       -0.1685
     13 O          61.6066   87.1099    9.8850 O.2     1  UNL1       -0.1685
     14 C          63.9317   89.1251   13.1127 C.ar    1  UNL1        0.0191
     15 C          63.7730   90.3030   12.1976 C.ar    1  UNL1        0.0023
     16 C          64.2504   91.6578   12.6295 C.ar    1  UNL1        0.0367
     17 C          64.8864   91.8347   13.9764 C.ar    1  UNL1        0.1385
     18 C          65.0451   90.6568   14.8914 C.ar    1  UNL1        0.0367
     19 C          64.5677   89.3020   14.4595 C.ar    1  UNL1        0.0023
     20 O          65.3638   93.1896   14.4083 O.3     1  UNL1       -0.4754
     21 C          66.5957   93.7826   13.7911 C.3     1  UNL1        0.2068
     22 C          66.4809   94.9648   12.8751 C.3     1  UNL1        0.0646
     23 C          66.1528   94.7614   11.4256 C.3     1  UNL1        0.0759
     24 N          67.0112   93.8676   10.5806 N.3     1  UNL1       -0.2726
     25 C          67.7121   94.2590    9.3135 C.3     1  UNL1        0.0721
     26 C          68.4535   93.0587    8.8040 C.3     1  UNL1        0.0188
     27 C          68.2108   91.9253    9.7563 C.3     1  UNL1        0.0188
     28 C          67.3194   92.4253   10.8543 C.3     1  UNL1        0.0721
     29 C          63.9940   85.0880   16.2275 C.3     1  UNL1        0.2526
     30 O          64.4429   84.1425   15.1530 O.3     1  UNL1       -0.4683
@<TRIPOS>BOND
     1    29    30    1
     2    30     1    1
     3     1     2   ar
     4     2     3   ar
     5     3     4   ar
     6     4     5   ar
     7     5     6   ar
     8     6     7    1
     9     7     8    1
    10     8    14    1
    11    14    15   ar
    12    15    16   ar
    13    16    17   ar
    14    17    20    1
    15    20    21    1
    16    21    22    1
    17    22    23    1
    18    23    24    1
    19    24    25    1
    20    25    26    1
    21    26    27    1
    22    27    28    1
    23    17    18   ar
    24    18    19   ar
    25     8     9    1
    26     9    10    1
    27     9    11    1
    28    11    12    2
    29    11    13    2
    30     6     1   ar
    31    19    14   ar
    32    11     5    1
    33    28    24    1
@<TRIPOS>MOLECULE
*****
 30 33 0 0 0
SMALL
GASTEIGER

@<TRIPOS>ATOM
      1 C          64.7971   92.5329   10.6392 C.ar    1  UNL1        0.1737
      2 C          65.3194   93.7440    9.9248 C.ar    1  UNL1        0.0401
      3 C          66.1538   94.7485   10.6629 C.ar    1  UNL1        0.0046
      4 C          66.4660   94.5418   12.1154 C.ar    1  UNL1        0.0217
      5 C          65.9437   93.3307   12.8298 C.ar    1  UNL1        0.1426
      6 C          65.1093   92.3263   12.0917 C.ar    1  UNL1        0.1895
      7 O          64.5870   91.1151   12.8062 O.3     1  UNL1       -0.4686
      8 C          64.8992   90.9085   14.2587 C.3     1  UNL1        0.2104
      9 C          65.7337   91.9129   14.9968 C.3     1  UNL1        0.1779
     10 C          66.0459   91.7063   16.4494 C.3     1  UNL1        0.0300
     11 S          66.2559   93.1240   14.2824 S.O2    1  UNL1        0.0138
     12 O          66.9731   94.4197   14.0436 O.2     1  UNL1       -0.1685
     13 O          66.8172   93.3674   15.6520 O.2     1  UNL1       -0.1685
     14 C          64.3769   89.6973   14.9732 C.ar    1  UNL1        0.0191
     15 C          64.7177   88.3255   14.4714 C.ar    1  UNL1        0.0023
     16 C          64.1955   87.1144   15.1858 C.ar    1  UNL1        0.0367
     17 C          63.3325   87.2751   16.4021 C.ar    1  UNL1        0.1385
     18 C          62.9917   88.6470   16.9039 C.ar    1  UNL1        0.0367
     19 C          63.5140   89.8581   16.1895 C.ar    1  UNL1        0.0023
     20 O          62.8102   86.0640   17.1166 O.3     1  UNL1       -0.4754
     21 C          62.2232   84.9267   16.3343 C.3     1  UNL1        0.2068
     22 C          63.1208   84.0029   15.5657 C.3     1  UNL1        0.0646
     23 C          62.5298   82.9800   14.6413 C.3     1  UNL1        0.0759
     24 N          63.0764   82.8181   13.2539 N.3     1  UNL1       -0.2726
     25 C          62.5653   81.8699   12.2099 C.3     1  UNL1        0.0721
     26 C          63.4031   82.0417   10.9776 C.3     1  UNL1        0.0188
     27 C          64.4321   83.0961   11.2599 C.3     1  UNL1        0.0188
     28 C          64.2301   83.5759   12.6668 C.3     1  UNL1        0.0721
     29 C          62.6535   91.0741   10.4753 C.3     1  UNL1        0.2526
     30 O          63.9626   91.5284    9.9012 O.3     1  UNL1       -0.4683
@<TRIPOS>BOND
     1    29    30    1
     2    30     1    1
     3     1     2   ar
     4     2     3   ar
     5     3     4   ar
     6     4     5   ar
     7     5     6   ar
     8     6     7    1
     9     7     8    1
    10     8    14    1
    11    14    15   ar
    12    15    16   ar
    13    16    17   ar
    14    17    20    1
    15    20    21    1
    16    21    22    1
    17    22    23    1
    18    23    24    1
    19    24    25    1
    20    25    26    1
    21    26    27    1
    22    27    28    1
    23    17    18   ar
    24    18    19   ar
    25     8     9    1
    26     9    10    1
    27     9    11    1
    28    11    12    2
    29    11    13    2
    30     6     1   ar
    31    19    14   ar
    32    11     5    1
    33    28    24    1
@<TRIPOS>MOLECULE
*****
 30 33 0 0 0
SMALL
GASTEIGER

@<TRIPOS>ATOM
      1 C          67.1243   92.6688   13.4752 C.ar    1  UNL1        0.1737
      2 C          67.8699   93.4858   14.4885 C.ar    1  UNL1        0.0401
      3 C          67.4000   93.5257   15.9124 C.ar    1  UNL1        0.0046
      4 C          66.1844   92.7487   16.3230 C.ar    1  UNL1        0.0217
      5 C          65.4388   91.9318   15.3098 C.ar    1  UNL1        0.1426
      6 C          65.9088   91.8919   13.8859 C.ar    1  UNL1        0.1895
      7 O          65.1631   91.0749   12.8726 O.3     1  UNL1       -0.4686
      8 C          63.9476   90.2979   13.2833 C.3     1  UNL1        0.2104
      9 C          63.4776   90.3378   14.7072 C.3     1  UNL1        0.1779
     10 C          62.2620   89.5608   15.1179 C.3     1  UNL1        0.0300
     11 S          64.2232   91.1547   15.7205 S.O2    1  UNL1        0.0138
     12 O          64.5910   91.7769   17.0349 O.2     1  UNL1       -0.1685
     13 O          63.1354   90.5938   16.5876 O.2     1  UNL1       -0.1685
     14 C          63.2019   89.4809   12.2700 C.ar    1  UNL1        0.0191
     15 C          63.1582   87.9869   12.3966 C.ar    1  UNL1        0.0023
     16 C          62.4126   87.1699   11.3834 C.ar    1  UNL1        0.0367
     17 C          61.7107   87.8470   10.2437 C.ar    1  UNL1        0.1385
     18 C          61.7545   89.3410   10.1171 C.ar    1  UNL1        0.0367
     19 C          62.5001   90.1580   11.1303 C.ar    1  UNL1        0.0023
     20 O          60.9651   87.0300    9.2304 O.3     1  UNL1       -0.4754
     21 C          59.6466   87.5119    8.7018 C.3     1  UNL1        0.2068
     22 C          59.5653   88.8162    7.9655 C.3     1  UNL1        0.0646
     23 C          59.0052   88.8587    6.5747 C.3     1  UNL1        0.0759
     24 N          59.0723   90.1276    5.7776 N.3     1  UNL1       -0.2726
     25 C          60.3216   90.7866    5.2724 C.3     1  UNL1        0.0721
     26 C          59.9233   92.0266    4.5283 C.3     1  UNL1        0.0188
     27 C          58.4278   92.1341    4.5735 C.3     1  UNL1        0.0188
     28 C          57.9018   90.9604    5.3457 C.3     1  UNL1        0.0721
     29 C          66.8704   93.4170   11.0002 C.3     1  UNL1        0.2526
     30 O          67.5943   92.6289   12.0513 O.3     1  UNL1       -0.4683
@<TRIPOS>BOND
     1    29    30    1
     2    30     1    1
     3     1     2   ar
     4     2     3   ar
     5     3     4   ar
     6     4     5   ar
     7     5     6   ar
     8     6     7    1
     9     7     8    1
    10     8    14    1
    11    14    15   ar
    12    15    16   ar
    13    16    17   ar
    14    17    20    1
    15    20    21    1
    16    21    22    1
    17    22    23    1
    18    23    24    1
    19    24    25    1
    20    25    26    1
    21    26    27    1
    22    27    28    1
    23    17    18   ar
    24    18    19   ar
    25     8     9    1
    26     9    10    1
    27     9    11    1
    28    11    12    2
    29    11    13    2
    30     6     1   ar
    31    19    14   ar
    32    11     5    1
    33    28    24    1
