@<TRIPOS>MOLECULE
*****
 32 35 0 0 0
SMALL
GASTEIGER

@<TRIPOS>ATOM
      1 N          63.1816   89.4539   12.5609 N.pl3   1  UNL1       -0.2872
      2 C          66.3134   94.4529   11.4648 C.2     1  UNL1        0.2530
      3 O          66.9303   95.2155   12.5997 O.2     1  UNL1       -0.2698
      4 N          65.5304   93.2031   11.7389 N.am    1  UNL1       -0.2759
      5 C          65.3643   92.7160   13.1478 C.3     1  UNL1        0.0954
      6 C          64.5814   91.4663   13.4218 C.3     1  UNL1        0.0416
      7 C          63.9645   90.7037   12.2869 C.3     1  UNL1        0.0807
      8 C          64.1306   91.1908   10.8780 C.3     1  UNL1        0.0416
      9 C          64.9136   92.4406   10.6040 C.3     1  UNL1        0.0954
     10 C          64.6154   96.8559   10.0533 C.3     1  UNL1        0.0558
     11 C          65.6990   96.0446    9.4071 C.ar    1  UNL1        0.1050
     12 N          66.1924   96.1955    7.9986 N.ar    1  UNL1       -0.0816
     13 O          67.2778   95.1841    7.7769 O.2     1  UNL1       -0.3579
     14 C          67.4552   94.4083    9.0484 C.ar    1  UNL1        0.1588
     15 C          68.4362   93.2959    9.2729 C.3     1  UNL1        0.0755
     16 C          66.4795   94.9401   10.0559 C.ar    1  UNL1        0.1031
     17 C          62.2860   88.8825   11.5020 C.ar    1  UNL1        0.0515
     18 C          61.1754   89.7133   10.9306 C.ar    1  UNL1        0.0148
     19 C          60.2799   89.1419    9.8715 C.ar    1  UNL1        0.0051
     20 C          60.4949   87.7398    9.3839 C.ar    1  UNL1        0.0715
     21 C          61.6054   86.9090    9.9553 C.ar    1  UNL1        0.0051
     22 C          62.5010   87.4804   11.0143 C.ar    1  UNL1        0.0148
     23 C          59.5993   87.1684    8.3249 C.3     1  UNL1        0.4186
     24 F          58.7037   86.5970    7.2659 F       1  UNL1       -0.1659
     25 F          59.0616   88.5394    8.0400 F       1  UNL1       -0.1659
     26 F          60.1370   85.7975    8.6099 F       1  UNL1       -0.1659
     27 C          63.2942   88.7755   13.8940 C.ar    1  UNL1        0.0710
     28 C          64.0232   87.4700   14.0120 C.ar    1  UNL1        0.0180
     29 C          64.1359   86.7916   15.3451 C.ar    1  UNL1        0.0220
     30 C          63.5195   87.4188   16.5602 C.ar    1  UNL1        0.0990
     31 N          62.7903   88.7244   16.4423 N.ar    1  UNL1       -0.2410
     32 C          62.6777   89.4028   15.1092 C.ar    1  UNL1        0.1136
@<TRIPOS>BOND
     1    10    11    1
     2    11    12   ar
     3    12    13   ar
     4    13    14   ar
     5    14    15    1
     6    14    16   ar
     7    16     2    1
     8     2     3    2
     9     2     4   am
    10     4     5    1
    11     5     6    1
    12     6     7    1
    13     7     1    1
    14     1    17    1
    15    17    18   ar
    16    18    19   ar
    17    19    20   ar
    18    20    23    1
    19    23    24    1
    20    23    25    1
    21    23    26    1
    22    20    21   ar
    23    21    22   ar
    24     1    27    1
    25    27    28   ar
    26    28    29   ar
    27    29    30   ar
    28    30    31   ar
    29    31    32   ar
    30     7     8    1
    31     8     9    1
    32    16    11   ar
    33     9     4    1
    34    22    17   ar
    35    32    27   ar
@<TRIPOS>MOLECULE
*****
 32 35 0 0 0
SMALL
GASTEIGER

@<TRIPOS>ATOM
      1 N          63.0885   89.0919   12.5143 N.pl3   1  UNL1       -0.2872
      2 C          63.8671   83.2800   13.7854 C.2     1  UNL1        0.2530
      3 O          64.5523   82.8756   15.0570 O.2     1  UNL1       -0.2698
      4 N          63.6724   84.7330   13.4676 N.am    1  UNL1       -0.2759
      5 C          64.1630   85.7816   14.4215 C.3     1  UNL1        0.0954
      6 C          63.9683   87.2345   14.1037 C.3     1  UNL1        0.0416
      7 C          63.2831   87.6389   12.8321 C.3     1  UNL1        0.0807
      8 C          62.7926   86.5904   11.8782 C.3     1  UNL1        0.0416
      9 C          62.9873   85.1374   12.1960 C.3     1  UNL1        0.0954
     10 C          64.8416   82.8911   10.6953 C.3     1  UNL1        0.0558
     11 C          63.8245   82.0527   11.4112 C.ar    1  UNL1        0.1050
     12 N          63.0767   80.8883   10.8323 N.ar    1  UNL1       -0.0816
     13 O          62.1666   80.3474   11.8950 O.2     1  UNL1       -0.3579
     14 C          62.3519   81.1775   13.1306 C.ar    1  UNL1        0.1588
     15 C          61.6379   80.9872   14.4359 C.3     1  UNL1        0.0755
     16 C          63.3765   82.2314   12.8315 C.ar    1  UNL1        0.1031
     17 C          64.0290   90.1155   13.0780 C.ar    1  UNL1        0.0515
     18 C          64.4467   91.2902   12.2440 C.ar    1  UNL1        0.0148
     19 C          65.3873   92.3137   12.8077 C.ar    1  UNL1        0.0051
     20 C          65.9102   92.1625   14.2054 C.ar    1  UNL1        0.0715
     21 C          65.4925   90.9878   15.0395 C.ar    1  UNL1        0.0051
     22 C          64.5520   89.9643   14.4758 C.ar    1  UNL1        0.0148
     23 C          66.8507   93.1860   14.7691 C.3     1  UNL1        0.4186
     24 F          67.7913   94.2096   15.3328 F       1  UNL1       -0.1659
     25 F          67.3228   92.1912   15.7877 F       1  UNL1       -0.1659
     26 F          66.3786   94.1808   13.7506 F       1  UNL1       -0.1659
     27 C          61.9533   89.5214   11.6329 C.ar    1  UNL1        0.0710
     28 C          62.0999   89.4667   10.1411 C.ar    1  UNL1        0.0180
     29 C          60.9647   89.8961    9.2597 C.ar    1  UNL1        0.0220
     30 C          59.6829   90.3802    9.8700 C.ar    1  UNL1        0.0990
     31 N          59.5363   90.4349   11.3619 N.ar    1  UNL1       -0.2410
     32 C          60.6715   90.0055   12.2433 C.ar    1  UNL1        0.1136
@<TRIPOS>BOND
     1    10    11    1
     2    11    12   ar
     3    12    13   ar
     4    13    14   ar
     5    14    15    1
     6    14    16   ar
     7    16     2    1
     8     2     3    2
     9     2     4   am
    10     4     5    1
    11     5     6    1
    12     6     7    1
    13     7     1    1
    14     1    17    1
    15    17    18   ar
    16    18    19   ar
    17    19    20   ar
    18    20    23    1
    19    23    24    1
    20    23    25    1
    21    23    26    1
    22    20    21   ar
    23    21    22   ar
    24     1    27    1
    25    27    28   ar
    26    28    29   ar
    27    29    30   ar
    28    30    31   ar
    29    31    32   ar
    30     7     8    1
    31     8     9    1
    32    16    11   ar
    33     9     4    1
    34    22    17   ar
    35    32    27   ar
@<TRIPOS>MOLECULE
*****
 32 35 0 0 0
SMALL
GASTEIGER

@<TRIPOS>ATOM
      1 N          65.6755   92.0797   12.5799 N.pl3   1  UNL1       -0.2872
      2 C          61.6860   87.8207   11.1852 C.2     1  UNL1        0.2530
      3 O          61.4466   86.6793   12.1286 O.2     1  UNL1       -0.2698
      4 N          62.6834   88.8855   11.5339 N.am    1  UNL1       -0.2759
      5 C          63.4414   88.8088   12.8259 C.3     1  UNL1        0.0954
      6 C          64.4388   89.8735   13.1746 C.3     1  UNL1        0.0416
      7 C          64.6781   91.0149   12.2312 C.3     1  UNL1        0.0807
      8 C          63.9201   91.0916   10.9391 C.3     1  UNL1        0.0416
      9 C          62.9227   90.0268   10.5905 C.3     1  UNL1        0.0954
     10 C          59.6048   90.1805   10.3193 C.3     1  UNL1        0.0558
     11 C          59.9713   88.9820    9.4951 C.ar    1  UNL1        0.1050
     12 N          59.4456   88.6578    8.1282 N.ar    1  UNL1       -0.0816
     13 O          60.0773   87.3727    7.6814 O.2     1  UNL1       -0.3579
     14 C          60.9934   86.9028    8.7722 C.ar    1  UNL1        0.1588
     15 C          61.8284   85.6569    8.7465 C.3     1  UNL1        0.0755
     16 C          60.9279   87.8974    9.8931 C.ar    1  UNL1        0.1031
     17 C          66.1524   93.0347   11.5261 C.ar    1  UNL1        0.0515
     18 C          67.0515   92.5511   10.4271 C.ar    1  UNL1        0.0148
     19 C          67.5283   93.5062    9.3733 C.ar    1  UNL1        0.0051
     20 C          67.1061   94.9448    9.4186 C.ar    1  UNL1        0.0715
     21 C          66.2071   95.4284   10.5175 C.ar    1  UNL1        0.0051
     22 C          65.7302   94.4734   11.5713 C.ar    1  UNL1        0.0148
     23 C          67.5830   95.8998    8.3648 C.3     1  UNL1        0.4186
     24 F          68.0599   96.8549    7.3110 F       1  UNL1       -0.1659
     25 F          67.1354   94.9457    7.2975 F       1  UNL1       -0.1659
     26 F          68.0307   96.8539    9.4321 F       1  UNL1       -0.1659
     27 C          66.1960   92.1893   13.9824 C.ar    1  UNL1        0.0710
     28 C          67.6683   92.0784   14.2469 C.ar    1  UNL1        0.0180
     29 C          68.1888   92.1880   15.6494 C.ar    1  UNL1        0.0220
     30 C          67.2370   92.4087   16.7875 C.ar    1  UNL1        0.0990
     31 N          65.7646   92.5197   16.5231 N.ar    1  UNL1       -0.2410
     32 C          65.2441   92.4100   15.1206 C.ar    1  UNL1        0.1136
@<TRIPOS>BOND
     1    10    11    1
     2    11    12   ar
     3    12    13   ar
     4    13    14   ar
     5    14    15    1
     6    14    16   ar
     7    16     2    1
     8     2     3    2
     9     2     4   am
    10     4     5    1
    11     5     6    1
    12     6     7    1
    13     7     1    1
    14     1    17    1
    15    17    18   ar
    16    18    19   ar
    17    19    20   ar
    18    20    23    1
    19    23    24    1
    20    23    25    1
    21    23    26    1
    22    20    21   ar
    23    21    22   ar
    24     1    27    1
    25    27    28   ar
    26    28    29   ar
    27    29    30   ar
    28    30    31   ar
    29    31    32   ar
    30     7     8    1
    31     8     9    1
    32    16    11   ar
    33     9     4    1
    34    22    17   ar
    35    32    27   ar
@<TRIPOS>MOLECULE
*****
 32 35 0 0 0
SMALL
GASTEIGER

@<TRIPOS>ATOM
      1 N          63.0954   89.0972   12.5242 N.pl3   1  UNL1       -0.2872
      2 C          63.8912   83.2855   13.7858 C.2     1  UNL1        0.2530
      3 O          64.5824   82.8812   15.0542 O.2     1  UNL1       -0.2698
      4 N          63.6923   84.7385   13.4704 N.am    1  UNL1       -0.2759
      5 C          64.1844   85.7870   14.4234 C.3     1  UNL1        0.0954
      6 C          63.9855   87.2399   14.1080 C.3     1  UNL1        0.0416
      7 C          63.2943   87.6442   12.8395 C.3     1  UNL1        0.0807
      8 C          62.8022   86.5956   11.8866 C.3     1  UNL1        0.0416
      9 C          63.0011   85.1428   12.2020 C.3     1  UNL1        0.0954
     10 C          61.6771   80.9809   14.4459 C.3     1  UNL1        0.0558
     11 C          62.3813   81.1776   13.1362 C.ar    1  UNL1        0.1050
     12 N          62.1914   80.3495   11.9000 N.ar    1  UNL1       -0.0816
     13 O          63.0919   80.8971   10.8325 O.2     1  UNL1       -0.3579
     14 C          63.8382   82.0636   11.4090 C.ar    1  UNL1        0.1588
     15 C          64.8466   82.9084   10.6883 C.3     1  UNL1        0.0755
     16 C          63.3991   82.2369   12.8328 C.ar    1  UNL1        0.1031
     17 C          64.0349   90.1222   13.0866 C.ar    1  UNL1        0.0515
     18 C          64.4572   91.2925   12.2487 C.ar    1  UNL1        0.0148
     19 C          65.3969   92.3176   12.8113 C.ar    1  UNL1        0.0051
     20 C          65.9141   92.1724   14.2117 C.ar    1  UNL1        0.0715
     21 C          65.4918   91.0021   15.0497 C.ar    1  UNL1        0.0051
     22 C          64.5523   89.9771   14.4872 C.ar    1  UNL1        0.0148
     23 C          66.8537   93.1974   14.7742 C.3     1  UNL1        0.4186
     24 F          67.7933   94.2225   15.3368 F       1  UNL1       -0.1659
     25 F          66.3812   94.1903   13.7540 F       1  UNL1       -0.1659
     26 F          67.3261   92.2045   15.7944 F       1  UNL1       -0.1659
     27 C          61.9568   89.5250   11.6463 C.ar    1  UNL1        0.0710
     28 C          62.1030   89.4816   10.1541 C.ar    1  UNL1        0.0180
     29 C          60.9645   89.9095    9.2762 C.ar    1  UNL1        0.0220
     30 C          59.6798   90.3806    9.8905 C.ar    1  UNL1        0.0990
     31 N          59.5335   90.4240   11.3827 N.ar    1  UNL1       -0.2410
     32 C          60.6720   89.9961   12.2606 C.ar    1  UNL1        0.1136
@<TRIPOS>BOND
     1    10    11    1
     2    11    12   ar
     3    12    13   ar
     4    13    14   ar
     5    14    15    1
     6    14    16   ar
     7    16     2    1
     8     2     3    2
     9     2     4   am
    10     4     5    1
    11     5     6    1
    12     6     7    1
    13     7     1    1
    14     1    17    1
    15    17    18   ar
    16    18    19   ar
    17    19    20   ar
    18    20    23    1
    19    23    24    1
    20    23    25    1
    21    23    26    1
    22    20    21   ar
    23    21    22   ar
    24     1    27    1
    25    27    28   ar
    26    28    29   ar
    27    29    30   ar
    28    30    31   ar
    29    31    32   ar
    30     7     8    1
    31     8     9    1
    32    16    11   ar
    33     9     4    1
    34    22    17   ar
    35    32    27   ar
@<TRIPOS>MOLECULE
*****
 32 35 0 0 0
SMALL
GASTEIGER

@<TRIPOS>ATOM
      1 N          62.8370   88.9493   11.4561 N.pl3   1  UNL1       -0.2872
      2 C          66.0489   93.9965   11.9144 C.2     1  UNL1        0.2530
      3 O          66.4438   94.5141   13.2658 O.2     1  UNL1       -0.2698
      4 N          65.2459   92.7346   11.7999 N.am    1  UNL1       -0.2759
      5 C          64.8379   91.9905   13.0366 C.3     1  UNL1        0.0954
      6 C          64.0349   90.7287   12.9220 C.3     1  UNL1        0.0416
      7 C          63.6400   90.2111   11.5707 C.3     1  UNL1        0.0807
      8 C          64.0480   90.9553   10.3339 C.3     1  UNL1        0.0416
      9 C          64.8510   92.2171   10.4485 C.3     1  UNL1        0.0954
     10 C          68.3084   93.0447    9.7607 C.3     1  UNL1        0.0558
     11 C          67.4955   94.3032    9.6877 C.ar    1  UNL1        0.1050
     12 N          67.5785   95.3452    8.6119 N.ar    1  UNL1       -0.0816
     13 O          66.5911   96.4267    8.9370 O.2     1  UNL1       -0.3579
     14 C          65.8980   96.0530   10.2137 C.ar    1  UNL1        0.1588
     15 C          64.8330   96.8516   10.9050 C.3     1  UNL1        0.0755
     16 C          66.4569   94.7407   10.6776 C.ar    1  UNL1        0.1031
     17 C          63.1663   87.7696   12.3220 C.ar    1  UNL1        0.0515
     18 C          62.7524   86.3908   11.9002 C.ar    1  UNL1        0.0148
     19 C          63.0817   85.2111   12.7662 C.ar    1  UNL1        0.0051
     20 C          63.8248   85.4101   14.0539 C.ar    1  UNL1        0.0715
     21 C          64.2387   86.7888   14.4757 C.ar    1  UNL1        0.0051
     22 C          63.9094   87.9685   13.6098 C.ar    1  UNL1        0.0148
     23 C          64.1541   84.2304   14.9198 C.3     1  UNL1        0.4186
     24 F          64.4833   83.0506   15.7857 F       1  UNL1       -0.1659
     25 F          65.5935   84.3313   14.5100 F       1  UNL1       -0.1659
     26 F          62.7147   84.1295   15.3296 F       1  UNL1       -0.1659
     27 C          61.7048   88.8672   10.4757 C.ar    1  UNL1        0.0710
     28 C          61.6045   87.6977    9.5419 C.ar    1  UNL1        0.0180
     29 C          60.4723   87.6156    8.5614 C.ar    1  UNL1        0.0220
     30 C          59.4403   88.7032    8.5147 C.ar    1  UNL1        0.0990
     31 N          59.5405   89.8728    9.4486 N.ar    1  UNL1       -0.2410
     32 C          60.6728   89.9549   10.4290 C.ar    1  UNL1        0.1136
@<TRIPOS>BOND
     1    10    11    1
     2    11    12   ar
     3    12    13   ar
     4    13    14   ar
     5    14    15    1
     6    14    16   ar
     7    16     2    1
     8     2     3    2
     9     2     4   am
    10     4     5    1
    11     5     6    1
    12     6     7    1
    13     7     1    1
    14     1    17    1
    15    17    18   ar
    16    18    19   ar
    17    19    20   ar
    18    20    23    1
    19    23    24    1
    20    23    25    1
    21    23    26    1
    22    20    21   ar
    23    21    22   ar
    24     1    27    1
    25    27    28   ar
    26    28    29   ar
    27    29    30   ar
    28    30    31   ar
    29    31    32   ar
    30     7     8    1
    31     8     9    1
    32    16    11   ar
    33     9     4    1
    34    22    17   ar
    35    32    27   ar
@<TRIPOS>MOLECULE
*****
 32 35 0 0 0
SMALL
GASTEIGER

@<TRIPOS>ATOM
      1 N          62.0713   89.1274   11.5331 N.pl3   1  UNL1       -0.2872
      2 C          66.4509   93.2089   11.9345 C.2     1  UNL1        0.2530
      3 O          67.1374   93.4457   13.2470 O.2     1  UNL1       -0.2698
      4 N          65.3560   92.1885   11.8342 N.am    1  UNL1       -0.2759
      5 C          64.9476   91.4049   13.0463 C.3     1  UNL1        0.0954
      6 C          63.8528   90.3846   12.9459 C.3     1  UNL1        0.0416
      7 C          63.1663   90.1478   11.6334 C.3     1  UNL1        0.0807
      8 C          63.5746   90.9313   10.4213 C.3     1  UNL1        0.0416
      9 C          64.6695   91.9517   10.5217 C.3     1  UNL1        0.0954
     10 C          65.7043   96.3266   11.3247 C.3     1  UNL1        0.0558
     11 C          66.5161   95.4255   10.4421 C.ar    1  UNL1        0.1050
     12 N          67.1272   95.7993    9.1242 N.ar    1  UNL1       -0.0816
     13 O          67.8481   94.5971    8.5901 O.2     1  UNL1       -0.3579
     14 C          67.6825   93.4805    9.5778 C.ar    1  UNL1        0.1588
     15 C          68.2419   92.0952    9.4443 C.3     1  UNL1        0.0755
     16 C          66.8593   93.9924   10.7224 C.ar    1  UNL1        0.1031
     17 C          62.4061   87.6941   11.2443 C.ar    1  UNL1        0.0515
     18 C          62.2386   87.1496    9.8566 C.ar    1  UNL1        0.0148
     19 C          62.5734   85.7162    9.5679 C.ar    1  UNL1        0.0051
     20 C          63.0757   84.8273   10.6667 C.ar    1  UNL1        0.0715
     21 C          63.2432   85.3717   12.0544 C.ar    1  UNL1        0.0051
     22 C          62.9084   86.8051   12.3431 C.ar    1  UNL1        0.0148
     23 C          63.4104   83.3940   10.3779 C.3     1  UNL1        0.4186
     24 F          63.7452   81.9606   10.0892 F       1  UNL1       -0.1659
     25 F          63.6893   83.7474    8.9471 F       1  UNL1       -0.1659
     26 F          63.1316   83.0406   11.8087 F       1  UNL1       -0.1659
     27 C          60.6417   89.5404   11.7215 C.ar    1  UNL1        0.0710
     28 C          59.6805   88.6208   12.4146 C.ar    1  UNL1        0.0180
     29 C          58.2508   89.0338   12.6031 C.ar    1  UNL1        0.0220
     30 C          57.7824   90.3664   12.0985 C.ar    1  UNL1        0.0990
     31 N          58.7436   91.2861   11.4054 N.ar    1  UNL1       -0.2410
     32 C          60.1733   90.8731   11.2169 C.ar    1  UNL1        0.1136
@<TRIPOS>BOND
     1    10    11    1
     2    11    12   ar
     3    12    13   ar
     4    13    14   ar
     5    14    15    1
     6    14    16   ar
     7    16     2    1
     8     2     3    2
     9     2     4   am
    10     4     5    1
    11     5     6    1
    12     6     7    1
    13     7     1    1
    14     1    17    1
    15    17    18   ar
    16    18    19   ar
    17    19    20   ar
    18    20    23    1
    19    23    24    1
    20    23    25    1
    21    23    26    1
    22    20    21   ar
    23    21    22   ar
    24     1    27    1
    25    27    28   ar
    26    28    29   ar
    27    29    30   ar
    28    30    31   ar
    29    31    32   ar
    30     7     8    1
    31     8     9    1
    32    16    11   ar
    33     9     4    1
    34    22    17   ar
    35    32    27   ar
@<TRIPOS>MOLECULE
*****
 32 35 0 0 0
SMALL
GASTEIGER

@<TRIPOS>ATOM
      1 N          62.1003   86.8613   11.1068 N.pl3   1  UNL1       -0.2872
      2 C          64.9039   91.8631   12.8739 C.2     1  UNL1        0.2530
      3 O          64.7767   93.1198   12.0650 O.2     1  UNL1       -0.2698
      4 N          64.2030   90.6126   12.4321 N.am    1  UNL1       -0.2759
      5 C          63.3749   90.6189   11.1814 C.3     1  UNL1        0.0954
      6 C          62.6740   89.3685   10.7397 C.3     1  UNL1        0.0416
      7 C          62.8012   88.1118   11.5486 C.3     1  UNL1        0.0807
      8 C          63.6293   88.1054   12.7993 C.3     1  UNL1        0.0416
      9 C          64.3301   89.3558   13.2411 C.3     1  UNL1        0.0954
     10 C          68.1640   91.8925   13.0161 C.3     1  UNL1        0.0558
     11 C          67.2305   91.8703   14.1900 C.ar    1  UNL1        0.1050
     12 N          67.6316   91.8576   15.6353 N.ar    1  UNL1       -0.0816
     13 O          66.3809   91.8363   16.4632 O.2     1  UNL1       -0.3579
     14 C          65.2069   91.8357   15.5295 C.ar    1  UNL1        0.1588
     15 C          63.7616   91.8174   15.9304 C.3     1  UNL1        0.0755
     16 C          65.7319   91.8567   14.1246 C.ar    1  UNL1        0.1031
     17 C          62.4308   85.5483   11.7523 C.ar    1  UNL1        0.0515
     18 C          62.3065   85.3910   13.2389 C.ar    1  UNL1        0.0148
     19 C          62.6371   84.0779   13.8843 C.ar    1  UNL1        0.0051
     20 C          63.0919   82.9221   13.0433 C.ar    1  UNL1        0.0715
     21 C          63.2162   83.0795   11.5567 C.ar    1  UNL1        0.0051
     22 C          62.8857   84.3925   10.9113 C.ar    1  UNL1        0.0148
     23 C          63.4224   81.6091   13.6888 C.3     1  UNL1        0.4186
     24 F          63.7530   80.2960   14.3343 F       1  UNL1       -0.1659
     25 F          62.1410   81.6688   14.4662 F       1  UNL1       -0.1659
     26 F          64.7038   81.5495   12.9113 F       1  UNL1       -0.1659
     27 C          61.0688   86.9239   10.0196 C.ar    1  UNL1        0.0710
     28 C          61.2269   86.0845    8.7866 C.ar    1  UNL1        0.0180
     29 C          60.1954   86.1471    7.6993 C.ar    1  UNL1        0.0220
     30 C          59.0060   87.0492    7.8450 C.ar    1  UNL1        0.0990
     31 N          58.8479   87.8888    9.0780 N.ar    1  UNL1       -0.2410
     32 C          59.8793   87.8261   10.1653 C.ar    1  UNL1        0.1136
@<TRIPOS>BOND
     1    10    11    1
     2    11    12   ar
     3    12    13   ar
     4    13    14   ar
     5    14    15    1
     6    14    16   ar
     7    16     2    1
     8     2     3    2
     9     2     4   am
    10     4     5    1
    11     5     6    1
    12     6     7    1
    13     7     1    1
    14     1    17    1
    15    17    18   ar
    16    18    19   ar
    17    19    20   ar
    18    20    23    1
    19    23    24    1
    20    23    25    1
    21    23    26    1
    22    20    21   ar
    23    21    22   ar
    24     1    27    1
    25    27    28   ar
    26    28    29   ar
    27    29    30   ar
    28    30    31   ar
    29    31    32   ar
    30     7     8    1
    31     8     9    1
    32    16    11   ar
    33     9     4    1
    34    22    17   ar
    35    32    27   ar
@<TRIPOS>MOLECULE
*****
 32 35 0 0 0
SMALL
GASTEIGER

@<TRIPOS>ATOM
      1 N          65.9273   92.9021   11.7067 N.pl3   1  UNL1       -0.2872
      2 C          61.8639   88.5220   11.1555 C.2     1  UNL1        0.2530
      3 O          61.6249   87.5732   12.2925 O.2     1  UNL1       -0.2698
      4 N          62.8798   89.6170   11.2934 N.am    1  UNL1       -0.2759
      5 C          63.6566   89.7632   12.5681 C.3     1  UNL1        0.0954
      6 C          64.6725   90.8582   12.7059 C.3     1  UNL1        0.0416
      7 C          64.9114   91.8070   11.5689 C.3     1  UNL1        0.0807
      8 C          64.1345   91.6608   10.2941 C.3     1  UNL1        0.0416
      9 C          63.1187   90.5658   10.1564 C.3     1  UNL1        0.0954
     10 C          59.5309   90.5391   10.0889 C.3     1  UNL1        0.0558
     11 C          60.0146   89.3029    9.3905 C.ar    1  UNL1        0.1050
     12 N          59.5109   88.7769    8.0792 N.ar    1  UNL1       -0.0816
     13 O          60.2720   87.5246    7.7591 O.2     1  UNL1       -0.3579
     14 C          61.2461   87.2767    8.8725 C.ar    1  UNL1        0.1588
     15 C          62.2099   86.1308    8.9619 C.3     1  UNL1        0.0755
     16 C          61.0870   88.3758    9.8808 C.ar    1  UNL1        0.1031
     17 C          66.8430   92.9305   12.8944 C.ar    1  UNL1        0.0515
     18 C          66.5672   93.8689   14.0317 C.ar    1  UNL1        0.0148
     19 C          67.4830   93.8973   15.2195 C.ar    1  UNL1        0.0051
     20 C          68.6744   92.9873   15.2699 C.ar    1  UNL1        0.0715
     21 C          68.9501   92.0490   14.1326 C.ar    1  UNL1        0.0051
     22 C          68.0344   92.0205   12.9449 C.ar    1  UNL1        0.0148
     23 C          69.5900   93.0158   16.4576 C.3     1  UNL1        0.4186
     24 F          70.5057   93.0442   17.6454 F       1  UNL1       -0.1659
     25 F          69.0812   91.6701   16.8821 F       1  UNL1       -0.1659
     26 F          70.0988   94.3615   16.0331 F       1  UNL1       -0.1659
     27 C          66.0275   93.9686   10.6567 C.ar    1  UNL1        0.0710
     28 C          66.9338   93.7770    9.4770 C.ar    1  UNL1        0.0180
     29 C          67.0340   94.8435    8.4271 C.ar    1  UNL1        0.0220
     30 C          66.2278   96.1018    8.5569 C.ar    1  UNL1        0.0990
     31 N          65.3214   96.2935    9.7366 N.ar    1  UNL1       -0.2410
     32 C          65.2212   95.2269   10.7866 C.ar    1  UNL1        0.1136
@<TRIPOS>BOND
     1    10    11    1
     2    11    12   ar
     3    12    13   ar
     4    13    14   ar
     5    14    15    1
     6    14    16   ar
     7    16     2    1
     8     2     3    2
     9     2     4   am
    10     4     5    1
    11     5     6    1
    12     6     7    1
    13     7     1    1
    14     1    17    1
    15    17    18   ar
    16    18    19   ar
    17    19    20   ar
    18    20    23    1
    19    23    24    1
    20    23    25    1
    21    23    26    1
    22    20    21   ar
    23    21    22   ar
    24     1    27    1
    25    27    28   ar
    26    28    29   ar
    27    29    30   ar
    28    30    31   ar
    29    31    32   ar
    30     7     8    1
    31     8     9    1
    32    16    11   ar
    33     9     4    1
    34    22    17   ar
    35    32    27   ar
@<TRIPOS>MOLECULE
*****
 32 35 0 0 0
SMALL
GASTEIGER

@<TRIPOS>ATOM
      1 N          65.9223   92.9148   11.7332 N.pl3   1  UNL1       -0.2872
      2 C          61.8701   88.5232   11.1913 C.2     1  UNL1        0.2530
      3 O          61.6672   87.5474   12.3124 O.2     1  UNL1       -0.2698
      4 N          62.8832   89.6211   11.3268 N.am    1  UNL1       -0.2759
      5 C          63.6933   89.7433   12.5833 C.3     1  UNL1        0.0954
      6 C          64.7063   90.8411   12.7187 C.3     1  UNL1        0.0416
      7 C          64.9092   91.8169   11.5977 C.3     1  UNL1        0.0807
      8 C          64.0992   91.6947   10.3412 C.3     1  UNL1        0.0416
      9 C          63.0862   90.5968   10.2058 C.3     1  UNL1        0.0954
     10 C          62.1497   86.1675    8.9503 C.3     1  UNL1        0.0558
     11 C          61.1885   87.3182    8.9047 C.ar    1  UNL1        0.1050
     12 N          60.1871   87.5882    7.8211 N.ar    1  UNL1       -0.0816
     13 O          59.4397   88.8379    8.1815 O.2     1  UNL1       -0.3579
     14 C          59.9792   89.3402    9.4879 C.ar    1  UNL1        0.1588
     15 C          59.5188   90.5664   10.2189 C.3     1  UNL1        0.0755
     16 C          61.0600   88.4010    9.9349 C.ar    1  UNL1        0.1031
     17 C          66.8447   92.9425   12.9157 C.ar    1  UNL1        0.0515
     18 C          68.0418   92.0395   12.9544 C.ar    1  UNL1        0.0148
     19 C          68.9642   92.0673   14.1371 C.ar    1  UNL1        0.0051
     20 C          68.6894   92.9979   15.2809 C.ar    1  UNL1        0.0715
     21 C          67.4923   93.9008   15.2421 C.ar    1  UNL1        0.0051
     22 C          66.5699   93.8732   14.0596 C.ar    1  UNL1        0.0148
     23 C          69.6118   93.0256   16.4634 C.3     1  UNL1        0.4186
     24 F          70.5342   93.0532   17.6460 F       1  UNL1       -0.1659
     25 F          70.1230   94.3685   16.0332 F       1  UNL1       -0.1659
     26 F          69.1005   91.6827   16.8936 F       1  UNL1       -0.1659
     27 C          66.0130   93.9850   10.6861 C.ar    1  UNL1        0.0710
     28 C          65.2487   95.2648   10.8535 C.ar    1  UNL1        0.0180
     29 C          65.3394   96.3350    9.8064 C.ar    1  UNL1        0.0220
     30 C          66.1943   96.1254    8.5918 C.ar    1  UNL1        0.0990
     31 N          66.9586   94.8456    8.4244 N.ar    1  UNL1       -0.2410
     32 C          66.8680   93.7754    9.4715 C.ar    1  UNL1        0.1136
@<TRIPOS>BOND
     1    10    11    1
     2    11    12   ar
     3    12    13   ar
     4    13    14   ar
     5    14    15    1
     6    14    16   ar
     7    16     2    1
     8     2     3    2
     9     2     4   am
    10     4     5    1
    11     5     6    1
    12     6     7    1
    13     7     1    1
    14     1    17    1
    15    17    18   ar
    16    18    19   ar
    17    19    20   ar
    18    20    23    1
    19    23    24    1
    20    23    25    1
    21    23    26    1
    22    20    21   ar
    23    21    22   ar
    24     1    27    1
    25    27    28   ar
    26    28    29   ar
    27    29    30   ar
    28    30    31   ar
    29    31    32   ar
    30     7     8    1
    31     8     9    1
    32    16    11   ar
    33     9     4    1
    34    22    17   ar
    35    32    27   ar
