@<TRIPOS>MOLECULE
*****
 27 29 0 0 0
SMALL
GASTEIGER

@<TRIPOS>ATOM
      1 C          66.6033   91.8485   15.2857 C.3     1  UNL1        0.0374
      2 C          66.5639   92.8000   14.1267 C.3     1  UNL1        0.1429
      3 C          67.5721   93.4907   14.9965 C.3     1  UNL1        0.0374
      4 O          66.8745   93.9913   13.2699 O.3     1  UNL1       -0.3494
      5 C          66.1907   94.1616   11.9457 C.3     1  UNL1        0.1670
      6 C          65.1962   93.1405   11.4784 C.3     1  UNL1        0.1423
      7 N          64.8856   91.9492   12.3352 N.ar    1  UNL1       -0.2771
      8 C          65.5694   91.7790   13.6594 C.ar    1  UNL1        0.1475
      9 N          65.2587   90.5876   14.5163 N.ar    1  UNL1       -0.2221
     10 C          64.2642   89.5665   14.0489 C.ar    1  UNL1        0.1740
     11 C          63.5804   89.7368   12.7248 C.ar    1  UNL1        0.2130
     12 O          62.5859   88.7156   12.2575 O.3     1  UNL1       -0.5006
     13 C          63.8911   90.9281   11.8679 C.ar    1  UNL1        0.2974
     14 O          63.2073   91.0983   10.5438 O.2     1  UNL1       -0.2636
     15 H          62.3918   87.9715   12.7927 H       1  UNL1        0.2924
     16 C          63.9535   88.3752   14.9058 C.2     1  UNL1        0.2671
     17 O          63.2903   88.5621   16.2381 O.2     1  UNL1       -0.2684
     18 N          64.3061   86.9969   14.4303 N.am    1  UNL1       -0.2956
     19 H          64.7414   86.8743   13.5558 H       1  UNL1        0.1501
     20 C          63.9954   85.8056   15.2871 C.3     1  UNL1        0.1166
     21 C          63.6738   84.4865   14.6494 C.ar    1  UNL1       -0.0024
     22 C          64.5256   83.9676   13.5290 C.ar    1  UNL1       -0.0003
     23 C          64.2040   82.6485   12.8913 C.ar    1  UNL1        0.0294
     24 C          63.0306   81.8484   13.3740 C.ar    1  UNL1        0.1401
     25 F          62.7090   80.5293   12.7363 F       1  UNL1       -0.2042
     26 C          62.1788   82.3673   14.4943 C.ar    1  UNL1        0.0294
     27 C          62.5004   83.6864   15.1320 C.ar    1  UNL1       -0.0003
@<TRIPOS>BOND
     1     1     2    1
     2     2     3    1
     3     2     4    1
     4     4     5    1
     5     5     6    1
     6     6     7    1
     7     7     8   ar
     8     8     9   ar
     9     9    10   ar
    10    10    16    1
    11    16    17    2
    12    16    18   am
    13    18    20    1
    14    20    21    1
    15    21    22   ar
    16    22    23   ar
    17    23    24   ar
    18    24    25    1
    19    24    26   ar
    20    26    27   ar
    21    10    11   ar
    22    11    12    1
    23    11    13   ar
    24    13    14    2
    25     8     2    1
    26    27    21   ar
    27    13     7   ar
    28    18    19    1
    29    12    15    1
@<TRIPOS>MOLECULE
*****
 27 29 0 0 0
SMALL
GASTEIGER

@<TRIPOS>ATOM
      1 C          65.2853   92.3173   10.7214 C.3     1  UNL1        0.0374
      2 C          66.0736   92.7834   11.9094 C.3     1  UNL1        0.1429
      3 C          66.8378   93.4578   10.8089 C.3     1  UNL1        0.0374
      4 O          67.1273   93.4837   12.7152 O.3     1  UNL1       -0.3494
      5 C          67.1431   93.3477   14.2090 C.3     1  UNL1        0.1670
      6 C          66.1051   92.5114   14.8969 C.3     1  UNL1        0.1423
      7 N          65.0515   91.8111   14.0912 N.ar    1  UNL1       -0.2771
      8 C          65.0357   91.9471   12.5974 C.ar    1  UNL1        0.1475
      9 N          63.9820   91.2468   11.7916 N.ar    1  UNL1       -0.2221
     10 C          62.9441   90.4105   12.4796 C.ar    1  UNL1        0.1740
     11 C          62.9598   90.2745   13.9733 C.ar    1  UNL1        0.2130
     12 O          61.9218   89.4382   14.6613 O.3     1  UNL1       -0.5006
     13 C          64.0135   90.9748   14.7791 C.ar    1  UNL1        0.2974
     14 O          64.0292   90.8389   16.2729 O.2     1  UNL1       -0.2636
     15 H          61.2636   89.0007   14.1580 H       1  UNL1        0.2924
     16 C          61.8903   89.7101   11.6738 C.2     1  UNL1        0.2671
     17 O          60.9912   90.4984   10.7683 O.2     1  UNL1       -0.2684
     18 N          61.7358   88.2215   11.7737 N.am    1  UNL1       -0.2956
     19 H          62.3259   87.7041   12.3680 H       1  UNL1        0.1501
     20 C          60.6821   87.5211   10.9679 C.3     1  UNL1        0.1166
     21 C          61.0656   86.7524    9.7383 C.ar    1  UNL1       -0.0024
     22 C          60.0588   86.5287    8.6492 C.ar    1  UNL1       -0.0003
     23 C          60.4423   85.7600    7.4196 C.ar    1  UNL1        0.0294
     24 C          61.8327   85.2150    7.2790 C.ar    1  UNL1        0.1401
     25 F          62.2162   84.4463    6.0494 F       1  UNL1       -0.2042
     26 C          62.8395   85.4387    8.3681 C.ar    1  UNL1        0.0294
     27 C          62.4560   86.2074    9.5977 C.ar    1  UNL1       -0.0003
@<TRIPOS>BOND
     1     1     2    1
     2     2     3    1
     3     2     4    1
     4     4     5    1
     5     5     6    1
     6     6     7    1
     7     7     8   ar
     8     8     9   ar
     9     9    10   ar
    10    10    16    1
    11    16    17    2
    12    16    18   am
    13    18    20    1
    14    20    21    1
    15    21    22   ar
    16    22    23   ar
    17    23    24   ar
    18    24    25    1
    19    24    26   ar
    20    26    27   ar
    21    10    11   ar
    22    11    12    1
    23    11    13   ar
    24    13    14    2
    25     8     2    1
    26    27    21   ar
    27    13     7   ar
    28    18    19    1
    29    12    15    1
@<TRIPOS>MOLECULE
*****
 27 29 0 0 0
SMALL
GASTEIGER

@<TRIPOS>ATOM
      1 C          64.1519   91.0319   15.5505 C.3     1  UNL1        0.0374
      2 C          65.1976   92.0796   15.3074 C.3     1  UNL1        0.1429
      3 C          65.2790   91.9720   16.8014 C.3     1  UNL1        0.0374
      4 O          66.2716   93.0898   15.5831 O.3     1  UNL1       -0.3494
      5 C          66.9010   93.8438   14.4494 C.3     1  UNL1        0.1670
      6 C          66.4564   93.5875   13.0399 C.3     1  UNL1        0.1423
      7 N          65.3825   92.5773   12.7642 N.ar    1  UNL1       -0.2771
      8 C          64.7531   91.8233   13.8979 C.ar    1  UNL1        0.1475
      9 N          63.6791   90.8131   13.6221 N.ar    1  UNL1       -0.2221
     10 C          63.2346   90.5568   12.2126 C.ar    1  UNL1        0.1740
     11 C          63.8640   91.3108   11.0789 C.ar    1  UNL1        0.2130
     12 O          63.4194   91.0545    9.6694 O.3     1  UNL1       -0.5006
     13 C          64.9379   92.3210   11.3546 C.ar    1  UNL1        0.2974
     14 O          65.5673   93.0750   10.2209 O.2     1  UNL1       -0.2636
     15 H          62.7485   90.4235    9.4971 H       1  UNL1        0.2924
     16 C          62.1606   89.5466   11.9368 C.2     1  UNL1        0.2671
     17 O          60.8490   89.6300   12.6597 O.2     1  UNL1       -0.2684
     18 N          62.3984   88.4529   10.9381 N.am    1  UNL1       -0.2956
     19 H          63.2593   88.3982   10.4637 H       1  UNL1        0.1501
     20 C          61.3245   87.4427   10.6623 C.3     1  UNL1        0.1166
     21 C          61.3759   86.6159    9.4118 C.ar    1  UNL1       -0.0024
     22 C          60.1496   86.4654    8.5612 C.ar    1  UNL1       -0.0003
     23 C          60.2010   85.6386    7.3107 C.ar    1  UNL1        0.0294
     24 C          61.4786   84.9622    6.9108 C.ar    1  UNL1        0.1401
     25 F          61.5300   84.1354    5.6603 F       1  UNL1       -0.2042
     26 C          62.7049   85.1127    7.7614 C.ar    1  UNL1        0.0294
     27 C          62.6535   85.9395    9.0119 C.ar    1  UNL1       -0.0003
@<TRIPOS>BOND
     1     1     2    1
     2     2     3    1
     3     2     4    1
     4     4     5    1
     5     5     6    1
     6     6     7    1
     7     7     8   ar
     8     8     9   ar
     9     9    10   ar
    10    10    16    1
    11    16    17    2
    12    16    18   am
    13    18    20    1
    14    20    21    1
    15    21    22   ar
    16    22    23   ar
    17    23    24   ar
    18    24    25    1
    19    24    26   ar
    20    26    27   ar
    21    10    11   ar
    22    11    12    1
    23    11    13   ar
    24    13    14    2
    25     8     2    1
    26    27    21   ar
    27    13     7   ar
    28    18    19    1
    29    12    15    1
@<TRIPOS>MOLECULE
*****
 27 29 0 0 0
SMALL
GASTEIGER

@<TRIPOS>ATOM
      1 C          65.1342   92.3149   10.6038 C.3     1  UNL1        0.0374
      2 C          65.8085   93.1408   11.6589 C.3     1  UNL1        0.1429
      3 C          66.2869   93.8507   10.4271 C.3     1  UNL1        0.0374
      4 O          66.6488   94.2133   12.2862 O.3     1  UNL1       -0.3494
      5 C          66.7767   94.2891   13.7788 C.3     1  UNL1        0.1670
      6 C          66.0641   93.2924   14.6442 C.3     1  UNL1        0.1423
      7 N          65.2238   92.2199   14.0169 N.ar    1  UNL1       -0.2771
      8 C          65.0959   92.1442   12.5243 C.ar    1  UNL1        0.1475
      9 N          64.2555   91.0716   11.8970 N.ar    1  UNL1       -0.2221
     10 C          63.5430   90.0749   12.7623 C.ar    1  UNL1        0.1740
     11 C          63.6708   90.1507   14.2549 C.ar    1  UNL1        0.2130
     12 O          62.9582   89.1539   15.1202 O.3     1  UNL1       -0.5006
     13 C          64.5112   91.2232   14.8822 C.ar    1  UNL1        0.2974
     14 O          64.6390   91.2989   16.3748 O.2     1  UNL1       -0.2636
     15 H          62.4332   88.4840   14.7284 H       1  UNL1        0.2924
     16 C          62.7026   89.0024   12.1350 C.2     1  UNL1        0.2671
     17 O          61.4283   89.3636   11.4310 O.2     1  UNL1       -0.2684
     18 N          63.1365   87.5685   12.2118 N.am    1  UNL1       -0.2956
     19 H          63.9729   87.3314   12.6738 H       1  UNL1        0.1501
     20 C          62.2962   86.4960   11.5845 C.3     1  UNL1        0.1166
     21 C          62.6002   85.0519   11.8530 C.ar    1  UNL1       -0.0024
     22 C          62.4466   84.4981   13.2385 C.ar    1  UNL1       -0.0003
     23 C          62.7506   83.0540   13.5070 C.ar    1  UNL1        0.0294
     24 C          63.2082   82.1636   12.3899 C.ar    1  UNL1        0.1401
     25 F          63.5122   80.7195   12.6584 F       1  UNL1       -0.2042
     26 C          63.3617   82.7174   11.0044 C.ar    1  UNL1        0.0294
     27 C          63.0577   84.1615   10.7359 C.ar    1  UNL1       -0.0003
@<TRIPOS>BOND
     1     1     2    1
     2     2     3    1
     3     2     4    1
     4     4     5    1
     5     5     6    1
     6     6     7    1
     7     7     8   ar
     8     8     9   ar
     9     9    10   ar
    10    10    16    1
    11    16    17    2
    12    16    18   am
    13    18    20    1
    14    20    21    1
    15    21    22   ar
    16    22    23   ar
    17    23    24   ar
    18    24    25    1
    19    24    26   ar
    20    26    27   ar
    21    10    11   ar
    22    11    12    1
    23    11    13   ar
    24    13    14    2
    25     8     2    1
    26    27    21   ar
    27    13     7   ar
    28    18    19    1
    29    12    15    1
@<TRIPOS>MOLECULE
*****
 27 29 0 0 0
SMALL
GASTEIGER

@<TRIPOS>ATOM
      1 C          61.5145   89.9826    9.6235 C.3     1  UNL1        0.0374
      2 C          61.1412   88.5305    9.6703 C.3     1  UNL1        0.1429
      3 C          60.3513   88.9640    8.4711 C.3     1  UNL1        0.0374
      4 O          60.4936   87.2291    9.3007 O.3     1  UNL1       -0.3494
      5 C          60.7655   85.9984   10.1140 C.3     1  UNL1        0.1670
      6 C          61.6851   86.0691   11.2969 C.3     1  UNL1        0.1423
      7 N          62.3327   87.3706   11.6665 N.ar    1  UNL1       -0.2771
      8 C          62.0608   88.6013   10.8533 C.ar    1  UNL1        0.1475
      9 N          62.7084   89.9029   11.2230 N.ar    1  UNL1       -0.2221
     10 C          63.6280   89.9737   12.4059 C.ar    1  UNL1        0.1740
     11 C          63.8999   88.7430   13.2192 C.ar    1  UNL1        0.2130
     12 O          64.8195   88.8138   14.4022 O.3     1  UNL1       -0.5006
     13 C          63.2523   87.4415   12.8495 C.ar    1  UNL1        0.2974
     14 O          63.5242   86.2108   13.6628 O.2     1  UNL1       -0.2636
     15 H          65.2241   89.6268   14.6331 H       1  UNL1        0.2924
     16 C          64.2757   91.2752   12.7756 C.2     1  UNL1        0.2671
     17 O          64.2010   91.7756   14.1876 O.2     1  UNL1       -0.2684
     18 N          64.9980   92.0762   11.7332 N.am    1  UNL1       -0.2956
     19 H          65.0470   91.7477   10.8064 H       1  UNL1        0.1501
     20 C          65.6456   93.3777   12.1028 C.3     1  UNL1        0.1166
     21 C          66.2438   94.2472   11.0369 C.ar    1  UNL1       -0.0024
     22 C          67.0196   93.6284    9.9121 C.ar    1  UNL1       -0.0003
     23 C          67.6178   94.4979    8.8462 C.ar    1  UNL1        0.0294
     24 C          67.4401   95.9861    8.9051 C.ar    1  UNL1        0.1401
     25 F          68.0383   96.8556    7.8391 F       1  UNL1       -0.2042
     26 C          66.6644   96.6049   10.0299 C.ar    1  UNL1        0.0294
     27 C          66.0662   95.7354   11.0958 C.ar    1  UNL1       -0.0003
@<TRIPOS>BOND
     1     1     2    1
     2     2     3    1
     3     2     4    1
     4     4     5    1
     5     5     6    1
     6     6     7    1
     7     7     8   ar
     8     8     9   ar
     9     9    10   ar
    10    10    16    1
    11    16    17    2
    12    16    18   am
    13    18    20    1
    14    20    21    1
    15    21    22   ar
    16    22    23   ar
    17    23    24   ar
    18    24    25    1
    19    24    26   ar
    20    26    27   ar
    21    10    11   ar
    22    11    12    1
    23    11    13   ar
    24    13    14    2
    25     8     2    1
    26    27    21   ar
    27    13     7   ar
    28    18    19    1
    29    12    15    1
@<TRIPOS>MOLECULE
*****
 27 29 0 0 0
SMALL
GASTEIGER

@<TRIPOS>ATOM
      1 C          62.6810   86.3044   11.2143 C.3     1  UNL1        0.0374
      2 C          62.7167   84.8090   11.1018 C.3     1  UNL1        0.1429
      3 C          62.2604   85.1635    9.7175 C.3     1  UNL1        0.0374
      4 O          62.5940   83.4368   10.5086 O.3     1  UNL1       -0.3494
      5 C          62.9152   82.2294   11.3387 C.3     1  UNL1        0.1670
      6 C          63.3590   82.3942   12.7619 C.3     1  UNL1        0.1423
      7 N          63.4817   83.7664   13.3551 N.ar    1  UNL1       -0.2771
      8 C          63.1606   84.9738   12.5251 C.ar    1  UNL1        0.1475
      9 N          63.2833   86.3461   13.1183 N.ar    1  UNL1       -0.2221
     10 C          63.7272   86.5109   14.5416 C.ar    1  UNL1        0.1740
     11 C          64.0483   85.3035   15.3717 C.ar    1  UNL1        0.2130
     12 O          64.4922   85.4683   16.7951 O.3     1  UNL1       -0.5006
     13 C          63.9256   83.9313   14.7785 C.ar    1  UNL1        0.2974
     14 O          64.2468   82.7238   15.6086 O.2     1  UNL1       -0.2636
     15 H          64.5689   86.3255   17.1656 H       1  UNL1        0.2924
     16 C          63.8499   87.8831   15.1349 C.2     1  UNL1        0.2671
     17 O          63.2950   88.1623   16.5002 O.2     1  UNL1       -0.2684
     18 N          64.5275   88.9761   14.3628 N.am    1  UNL1       -0.2956
     19 H          64.8917   88.7929   13.4667 H       1  UNL1        0.1501
     20 C          64.6503   90.3483   14.9560 C.3     1  UNL1        0.1166
     21 C          65.1702   91.4820   14.1226 C.ar    1  UNL1       -0.0024
     22 C          64.7578   91.6073   12.6859 C.ar    1  UNL1       -0.0003
     23 C          65.2777   92.7409   11.8525 C.ar    1  UNL1        0.0294
     24 C          66.2101   93.7492   12.4558 C.ar    1  UNL1        0.1401
     25 F          66.7301   94.8828   11.6224 F       1  UNL1       -0.2042
     26 C          66.6225   93.6239   13.8925 C.ar    1  UNL1        0.0294
     27 C          66.1026   92.4902   14.7259 C.ar    1  UNL1       -0.0003
@<TRIPOS>BOND
     1     1     2    1
     2     2     3    1
     3     2     4    1
     4     4     5    1
     5     5     6    1
     6     6     7    1
     7     7     8   ar
     8     8     9   ar
     9     9    10   ar
    10    10    16    1
    11    16    17    2
    12    16    18   am
    13    18    20    1
    14    20    21    1
    15    21    22   ar
    16    22    23   ar
    17    23    24   ar
    18    24    25    1
    19    24    26   ar
    20    26    27   ar
    21    10    11   ar
    22    11    12    1
    23    11    13   ar
    24    13    14    2
    25     8     2    1
    26    27    21   ar
    27    13     7   ar
    28    18    19    1
    29    12    15    1
@<TRIPOS>MOLECULE
*****
 27 29 0 0 0
SMALL
GASTEIGER

@<TRIPOS>ATOM
      1 C          61.2184   90.0374    9.5445 C.3     1  UNL1        0.0374
      2 C          60.8729   88.5985    9.2991 C.3     1  UNL1        0.1429
      3 C          60.1240   89.2424    8.1701 C.3     1  UNL1        0.0374
      4 O          60.2673   87.3832    8.6617 O.3     1  UNL1       -0.3494
      5 C          60.5306   86.0238    9.2385 C.3     1  UNL1        0.1670
      6 C          61.3995   85.8797   10.4526 C.3     1  UNL1        0.1423
      7 N          62.0051   87.0949   11.0900 N.ar    1  UNL1       -0.2771
      8 C          61.7418   88.4544   10.5133 C.ar    1  UNL1        0.1475
      9 N          62.3474   89.6697   11.1508 N.ar    1  UNL1       -0.2221
     10 C          63.2163   89.5255   12.3649 C.ar    1  UNL1        0.1740
     11 C          63.4796   88.1661   12.9417 C.ar    1  UNL1        0.2130
     12 O          64.3485   88.0220   14.1559 O.3     1  UNL1       -0.5006
     13 C          62.8740   86.9508   12.3043 C.ar    1  UNL1        0.2974
     14 O          63.1373   85.5914   12.8810 O.2     1  UNL1       -0.2636
     15 H          64.7268   88.7812   14.5541 H       1  UNL1        0.2924
     16 C          63.8219   90.7408   13.0024 C.2     1  UNL1        0.2671
     17 O          63.4865   91.0889   14.4224 O.2     1  UNL1       -0.2684
     18 N          64.7629   91.6081   12.2198 N.am    1  UNL1       -0.2956
     19 H          64.9830   91.3797   11.2878 H       1  UNL1        0.1501
     20 C          65.3685   92.8233   12.8572 C.3     1  UNL1        0.1166
     21 C          66.4720   92.6722   13.8620 C.ar    1  UNL1       -0.0024
     22 C          66.2485   93.0789   15.2883 C.ar    1  UNL1       -0.0003
     23 C          67.3520   92.9278   16.2930 C.ar    1  UNL1        0.0294
     24 C          68.6789   92.3699   15.8714 C.ar    1  UNL1        0.1401
     25 F          69.7824   92.2187   16.8761 F       1  UNL1       -0.2042
     26 C          68.9024   91.9631   14.4451 C.ar    1  UNL1        0.0294
     27 C          67.7989   92.1143   13.4403 C.ar    1  UNL1       -0.0003
@<TRIPOS>BOND
     1     1     2    1
     2     2     3    1
     3     2     4    1
     4     4     5    1
     5     5     6    1
     6     6     7    1
     7     7     8   ar
     8     8     9   ar
     9     9    10   ar
    10    10    16    1
    11    16    17    2
    12    16    18   am
    13    18    20    1
    14    20    21    1
    15    21    22   ar
    16    22    23   ar
    17    23    24   ar
    18    24    25    1
    19    24    26   ar
    20    26    27   ar
    21    10    11   ar
    22    11    12    1
    23    11    13   ar
    24    13    14    2
    25     8     2    1
    26    27    21   ar
    27    13     7   ar
    28    18    19    1
    29    12    15    1
@<TRIPOS>MOLECULE
*****
 27 29 0 0 0
SMALL
GASTEIGER

@<TRIPOS>ATOM
      1 C          61.6389   87.2836   10.4044 C.3     1  UNL1        0.0374
      2 C          61.8693   88.7642   10.3350 C.3     1  UNL1        0.1429
      3 C          61.0171   88.5757    9.1150 C.3     1  UNL1        0.0374
      4 O          61.8038   90.1793    9.8419 O.3     1  UNL1       -0.3494
      5 C          62.5104   91.2687   10.5928 C.3     1  UNL1        0.1670
      6 C          63.2826   90.9431   11.8368 C.3     1  UNL1        0.1423
      7 N          63.3482   89.5280   12.3299 N.ar    1  UNL1       -0.2771
      8 C          62.6415   88.4386   11.5790 C.ar    1  UNL1        0.1475
      9 N          62.7071   87.0234   12.0722 N.ar    1  UNL1       -0.2221
     10 C          63.4793   86.6978   13.3162 C.ar    1  UNL1        0.1740
     11 C          64.1859   87.7872   14.0671 C.ar    1  UNL1        0.2130
     12 O          64.9582   87.4614   15.3112 O.3     1  UNL1       -0.5006
     13 C          64.1204   89.2022   13.5740 C.ar    1  UNL1        0.2974
     14 O          64.8270   90.2917   14.3249 O.2     1  UNL1       -0.2636
     15 H          64.9991   86.5775   15.6192 H       1  UNL1        0.2924
     16 C          63.5449   85.2826   13.8094 C.2     1  UNL1        0.2671
     17 O          64.8744   84.6117   13.9885 O.2     1  UNL1       -0.2684
     18 N          62.2809   84.5385   14.1233 N.am    1  UNL1       -0.2956
     19 H          61.4083   84.9789   14.0057 H       1  UNL1        0.1501
     20 C          62.3465   83.1234   14.6165 C.3     1  UNL1        0.1166
     21 C          62.4486   81.9918   13.6372 C.ar    1  UNL1       -0.0024
     22 C          62.8337   82.2646   12.2134 C.ar    1  UNL1       -0.0003
     23 C          62.9358   81.1330   11.2340 C.ar    1  UNL1        0.0294
     24 C          62.6528   79.7286   11.6785 C.ar    1  UNL1        0.1401
     25 F          62.7549   78.5971   10.6992 F       1  UNL1       -0.2042
     26 C          62.2677   79.4559   13.1023 C.ar    1  UNL1        0.0294
     27 C          62.1656   80.5874   14.0816 C.ar    1  UNL1       -0.0003
@<TRIPOS>BOND
     1     1     2    1
     2     2     3    1
     3     2     4    1
     4     4     5    1
     5     5     6    1
     6     6     7    1
     7     7     8   ar
     8     8     9   ar
     9     9    10   ar
    10    10    16    1
    11    16    17    2
    12    16    18   am
    13    18    20    1
    14    20    21    1
    15    21    22   ar
    16    22    23   ar
    17    23    24   ar
    18    24    25    1
    19    24    26   ar
    20    26    27   ar
    21    10    11   ar
    22    11    12    1
    23    11    13   ar
    24    13    14    2
    25     8     2    1
    26    27    21   ar
    27    13     7   ar
    28    18    19    1
    29    12    15    1
@<TRIPOS>MOLECULE
*****
 27 29 0 0 0
SMALL
GASTEIGER

@<TRIPOS>ATOM
      1 C          64.7876   91.0589   15.3360 C.3     1  UNL1        0.0374
      2 C          65.6167   92.2475   14.9486 C.3     1  UNL1        0.1429
      3 C          65.9592   92.1549   16.4060 C.3     1  UNL1        0.0374
      4 O          66.5647   93.4038   15.0673 O.3     1  UNL1       -0.3494
      5 C          66.8822   94.2400   13.8632 C.3     1  UNL1        0.1670
      6 C          66.2517   93.9199   12.5403 C.3     1  UNL1        0.1423
      7 N          65.3038   92.7635   12.4216 N.ar    1  UNL1       -0.2771
      8 C          64.9862   91.9273   13.6257 C.ar    1  UNL1        0.1475
      9 N          64.0382   90.7709   13.5070 N.ar    1  UNL1       -0.2221
     10 C          63.4077   90.4508   12.1841 C.ar    1  UNL1        0.1740
     11 C          63.7253   91.2870   10.9800 C.ar    1  UNL1        0.2130
     12 O          63.0948   90.9668    9.6571 O.3     1  UNL1       -0.5006
     13 C          64.6732   92.4433   11.0987 C.ar    1  UNL1        0.2974
     14 O          64.9908   93.2795    9.8946 O.2     1  UNL1       -0.2636
     15 H          62.5026   90.2444    9.5829 H       1  UNL1        0.2924
     16 C          62.4597   89.2944   12.0653 C.2     1  UNL1        0.2671
     17 O          60.9846   89.5145   12.2249 O.2     1  UNL1       -0.2684
     18 N          62.9869   87.9179   11.7870 N.am    1  UNL1       -0.2956
     19 H          63.9551   87.7735   11.6823 H       1  UNL1        0.1501
     20 C          62.0389   86.7616   11.6682 C.3     1  UNL1        0.1166
     21 C          62.5241   85.3650   11.9213 C.ar    1  UNL1       -0.0024
     22 C          62.8527   84.4645   10.7675 C.ar    1  UNL1       -0.0003
     23 C          63.3379   83.0679   11.0205 C.ar    1  UNL1        0.0294
     24 C          63.4945   82.5717   12.4273 C.ar    1  UNL1        0.1401
     25 F          63.9797   81.1751   12.6804 F       1  UNL1       -0.2042
     26 C          63.1660   83.4721   13.5811 C.ar    1  UNL1        0.0294
     27 C          62.6808   84.8688   13.3281 C.ar    1  UNL1       -0.0003
@<TRIPOS>BOND
     1     1     2    1
     2     2     3    1
     3     2     4    1
     4     4     5    1
     5     5     6    1
     6     6     7    1
     7     7     8   ar
     8     8     9   ar
     9     9    10   ar
    10    10    16    1
    11    16    17    2
    12    16    18   am
    13    18    20    1
    14    20    21    1
    15    21    22   ar
    16    22    23   ar
    17    23    24   ar
    18    24    25    1
    19    24    26   ar
    20    26    27   ar
    21    10    11   ar
    22    11    12    1
    23    11    13   ar
    24    13    14    2
    25     8     2    1
    26    27    21   ar
    27    13     7   ar
    28    18    19    1
    29    12    15    1
