@<TRIPOS>MOLECULE
*****
 39 42 0 0 0
SMALL
GASTEIGER

@<TRIPOS>ATOM
      1 C          62.5680   87.3027   11.7614 C.ar    1  UNL1        0.2144
      2 C          61.7865   86.4663   10.7920 C.ar    1  UNL1        0.1822
      3 O          61.8077   84.9707   10.9047 O.2     1  UNL1       -0.4500
      4 C          62.6106   84.3115   11.9868 C.ar    1  UNL1        0.1545
      5 C          62.6318   82.8159   12.0995 C.ar    1  UNL1        0.0744
      6 C          63.4346   82.1567   13.1816 C.ar    1  UNL1        0.1397
      7 O          63.4560   80.6610   13.2943 O.3     1  UNL1       -0.5053
      8 C          64.2161   82.9931   14.1510 C.ar    1  UNL1        0.0735
      9 C          64.1949   84.4886   14.0383 C.ar    1  UNL1        0.1428
     10 O          64.9764   85.3250   15.0077 O.3     1  UNL1       -0.5052
     11 C          63.3921   85.1478   12.9562 C.ar    1  UNL1        0.1104
     12 C          63.3708   86.6435   12.8435 C.ar    1  UNL1        0.2382
     13 O          64.1523   87.4799   13.8129 O.2     1  UNL1       -0.2830
     14 H          62.9678   80.1386   12.6888 H       1  UNL1        0.2922
     15 H          65.4779   84.9132   15.6836 H       1  UNL1        0.2922
     16 C          60.9836   87.1256    9.7099 C.ar    1  UNL1        0.0379
     17 C          60.9041   88.6219    9.6409 C.ar    1  UNL1        0.0062
     18 C          60.1013   89.2811    8.5588 C.ar    1  UNL1        0.0367
     19 C          59.3781   88.4440    7.5458 C.ar    1  UNL1        0.1337
     20 O          58.5752   89.1033    6.4636 O.3     1  UNL1       -0.5055
     21 C          59.4576   86.9477    7.6148 C.ar    1  UNL1        0.0367
     22 C          60.2604   86.2885    8.6969 C.ar    1  UNL1        0.0062
     23 H          58.5256   90.0380    6.4205 H       1  UNL1        0.2922
     24 O          62.5466   88.7984   11.6487 O.3     1  UNL1       -0.4441
     25 C          64.5718   91.6695   13.4941 C.3     1  UNL1        0.2306
     26 C          64.3043   91.3272   14.9298 C.3     1  UNL1        0.1804
     27 O          64.8901   92.1702   16.0235 O.3     1  UNL1       -0.3785
     28 C          63.4508   90.1420   15.2718 C.3     1  UNL1        0.1494
     29 C          63.1833   89.7998   16.7075 C.3     1  UNL1        0.0349
     30 O          62.8650   89.2990   14.1781 O.3     1  UNL1       -0.3186
     31 C          63.1325   89.6413   12.7424 C.3     1  UNL1        0.3194
     32 C          63.9859   90.8265   12.4004 C.3     1  UNL1        0.2240
     33 O          64.2534   91.1687   10.9647 O.3     1  UNL1       -0.3758
     34 H          64.6219   91.8142   16.8850 H       1  UNL1        0.2106
     35 H          63.8045   90.5286   10.3906 H       1  UNL1        0.2107
     36 O          65.4252   92.8546   13.1521 O.3     1  UNL1       -0.4468
     37 C          67.8026   91.9191   13.6240 C.3     1  UNL1        0.1212
     38 C          66.8504   92.6555   12.7289 C.2     1  UNL1        0.3176
     39 O          67.3235   93.1928   11.4108 O.2     1  UNL1       -0.2501
@<TRIPOS>BOND
     1    37    38    1
     2    38    39    2
     3    38    36    1
     4    25    36    1
     5    25    26    1
     6    26    27    1
     7    26    28    1
     8    28    29    1
     9    28    30    1
    10    30    31    1
    11    31    24    1
    12    24     1    1
    13     1     2   ar
    14     2    16    1
    15    16    17   ar
    16    17    18   ar
    17    18    19   ar
    18    19    20    1
    19    19    21   ar
    20    21    22   ar
    21     2     3   ar
    22     3     4   ar
    23     4     5   ar
    24     5     6   ar
    25     6     7    1
    26     6     8   ar
    27     8     9   ar
    28     9    10    1
    29     9    11   ar
    30    11    12   ar
    31    12    13    2
    32    31    32    1
    33    32    33    1
    34    32    25    1
    35    12     1   ar
    36    22    16   ar
    37    11     4   ar
    38    27    34    1
    39    20    23    1
    40     7    14    1
    41    10    15    1
    42    33    35    1
@<TRIPOS>MOLECULE
*****
 39 42 0 0 0
SMALL
GASTEIGER

@<TRIPOS>ATOM
      1 C          62.4243   87.8918   11.8293 C.ar    1  UNL1        0.2144
      2 C          61.8396   86.9875   10.7851 C.ar    1  UNL1        0.1822
      3 O          62.0758   85.5079   10.8568 O.2     1  UNL1       -0.4500
      4 C          62.8967   84.9327   11.9727 C.ar    1  UNL1        0.1545
      5 C          63.1329   83.4531   12.0444 C.ar    1  UNL1        0.0744
      6 C          63.9538   82.8779   13.1603 C.ar    1  UNL1        0.1397
      7 O          64.1900   81.3984   13.2320 O.3     1  UNL1       -0.5053
      8 C          64.5385   83.7823   14.2044 C.ar    1  UNL1        0.0735
      9 C          64.3023   85.2618   14.1328 C.ar    1  UNL1        0.1428
     10 O          64.8870   86.1661   15.1769 O.3     1  UNL1       -0.5052
     11 C          63.4814   85.8370   13.0169 C.ar    1  UNL1        0.1104
     12 C          63.2452   87.3166   12.9452 C.ar    1  UNL1        0.2382
     13 O          63.8299   88.2209   13.9893 O.2     1  UNL1       -0.2830
     14 H          63.8248   80.8334   12.5797 H       1  UNL1        0.2922
     15 H          65.3998   85.8068   15.8740 H       1  UNL1        0.2922
     16 C          61.0186   87.5627    9.6692 C.ar    1  UNL1        0.0379
     17 C          60.2883   86.6510    8.7282 C.ar    1  UNL1        0.0062
     18 C          59.4675   87.2263    7.6124 C.ar    1  UNL1        0.0367
     19 C          59.3769   88.7133    7.4375 C.ar    1  UNL1        0.1337
     20 O          58.5559   89.2886    6.3216 O.3     1  UNL1       -0.5055
     21 C          60.1072   89.6250    8.3784 C.ar    1  UNL1        0.0367
     22 C          60.9280   89.0497    9.4943 C.ar    1  UNL1        0.0062
     23 H          58.0997   88.7190    5.7338 H       1  UNL1        0.2922
     24 O          62.1880   89.3714   11.7575 O.3     1  UNL1       -0.4441
     25 C          64.9263   92.1969   11.2395 C.3     1  UNL1        0.2306
     26 C          65.5588   92.2314   12.5991 C.3     1  UNL1        0.1804
     27 O          66.6824   93.1847   12.8797 O.3     1  UNL1       -0.3785
     28 C          65.0677   91.3125   13.6784 C.3     1  UNL1        0.1494
     29 C          65.7002   91.3470   15.0380 C.3     1  UNL1        0.0349
     30 O          63.9441   90.3592   13.3978 O.3     1  UNL1       -0.3186
     31 C          63.3116   90.3247   12.0381 C.3     1  UNL1        0.3194
     32 C          63.8027   91.2436   10.9590 C.3     1  UNL1        0.2240
     33 O          63.1702   91.2091    9.5993 O.3     1  UNL1       -0.3758
     34 H          66.9744   93.0789   13.7986 H       1  UNL1        0.2106
     35 H          62.4655   90.5426    9.5874 H       1  UNL1        0.2107
     36 O          65.4173   93.1157   10.1604 O.3     1  UNL1       -0.4468
     37 C          67.8333   92.3765    9.5547 C.3     1  UNL1        0.1212
     38 C          66.8807   93.4253   10.0474 C.2     1  UNL1        0.3176
     39 O          67.3915   94.7835   10.4270 O.2     1  UNL1       -0.2501
@<TRIPOS>BOND
     1    37    38    1
     2    38    39    2
     3    38    36    1
     4    25    36    1
     5    25    26    1
     6    26    27    1
     7    26    28    1
     8    28    29    1
     9    28    30    1
    10    30    31    1
    11    31    24    1
    12    24     1    1
    13     1     2   ar
    14     2    16    1
    15    16    17   ar
    16    17    18   ar
    17    18    19   ar
    18    19    20    1
    19    19    21   ar
    20    21    22   ar
    21     2     3   ar
    22     3     4   ar
    23     4     5   ar
    24     5     6   ar
    25     6     7    1
    26     6     8   ar
    27     8     9   ar
    28     9    10    1
    29     9    11   ar
    30    11    12   ar
    31    12    13    2
    32    31    32    1
    33    32    33    1
    34    32    25    1
    35    12     1   ar
    36    22    16   ar
    37    11     4   ar
    38    27    34    1
    39    20    23    1
    40     7    14    1
    41    10    15    1
    42    33    35    1
@<TRIPOS>MOLECULE
*****
 39 42 0 0 0
SMALL
GASTEIGER

@<TRIPOS>ATOM
      1 C          62.6542   88.5226   12.0920 C.ar    1  UNL1        0.2144
      2 C          62.3699   89.0697   10.7246 C.ar    1  UNL1        0.1822
      3 O          63.0148   90.3488   10.2796 O.2     1  UNL1       -0.4500
      4 C          63.9441   91.0808   11.2021 C.ar    1  UNL1        0.1545
      5 C          64.5890   92.3598   10.7571 C.ar    1  UNL1        0.0744
      6 C          65.5182   93.0917   11.6795 C.ar    1  UNL1        0.1397
      7 O          66.1631   94.3708   11.2345 O.3     1  UNL1       -0.5053
      8 C          65.8024   92.5446   13.0469 C.ar    1  UNL1        0.0735
      9 C          65.1575   91.2655   13.4919 C.ar    1  UNL1        0.1428
     10 O          65.4417   90.7184   14.8593 O.3     1  UNL1       -0.5052
     11 C          64.2283   90.5336   12.5695 C.ar    1  UNL1        0.1104
     12 C          63.5833   89.2545   13.0145 C.ar    1  UNL1        0.2382
     13 O          63.8676   88.7074   14.3819 O.2     1  UNL1       -0.2830
     14 H          65.9856   94.7126   10.3803 H       1  UNL1        0.2922
     15 H          66.0222   91.1756   15.4356 H       1  UNL1        0.2922
     16 C          61.4407   88.3378    9.8022 C.ar    1  UNL1        0.0379
     17 C          61.9540   87.2037    8.9654 C.ar    1  UNL1        0.0062
     18 C          61.0248   86.4718    8.0430 C.ar    1  UNL1        0.0367
     19 C          59.5823   86.8740    7.9574 C.ar    1  UNL1        0.1337
     20 O          58.6530   86.1420    7.0350 O.3     1  UNL1       -0.5055
     21 C          59.0689   88.0080    8.7942 C.ar    1  UNL1        0.0367
     22 C          59.9981   88.7399    9.7166 C.ar    1  UNL1        0.0062
     23 H          58.9737   85.4335    6.5123 H       1  UNL1        0.2922
     24 O          62.0092   87.2435   12.5370 O.3     1  UNL1       -0.4441
     25 C          63.6113   83.6327   12.9183 C.3     1  UNL1        0.2306
     26 C          63.8867   83.2918   11.4838 C.3     1  UNL1        0.1804
     27 O          64.5125   81.9746   11.1327 O.3     1  UNL1       -0.3785
     28 C          63.5362   84.2682   10.4002 C.3     1  UNL1        0.1494
     29 C          63.8116   83.9273    8.9657 C.3     1  UNL1        0.0349
     30 O          62.9104   85.5854   10.7513 O.3     1  UNL1       -0.3186
     31 C          62.6350   85.9263   12.1859 C.3     1  UNL1        0.3194
     32 C          62.9855   84.9499   13.2694 C.3     1  UNL1        0.2240
     33 O          62.7101   85.2908   14.7039 O.3     1  UNL1       -0.3758
     34 H          64.6210   81.9143   10.1707 H       1  UNL1        0.2106
     35 H          62.3071   86.1717   14.7553 H       1  UNL1        0.2107
     36 O          63.9618   82.6564   14.0018 O.3     1  UNL1       -0.4468
     37 C          61.6340   81.5182   14.1910 C.3     1  UNL1        0.1212
     38 C          63.1310   81.4229   14.1974 C.2     1  UNL1        0.3176
     39 O          63.7971   80.0942   14.3993 O.2     1  UNL1       -0.2501
@<TRIPOS>BOND
     1    37    38    1
     2    38    39    2
     3    38    36    1
     4    25    36    1
     5    25    26    1
     6    26    27    1
     7    26    28    1
     8    28    29    1
     9    28    30    1
    10    30    31    1
    11    31    24    1
    12    24     1    1
    13     1     2   ar
    14     2    16    1
    15    16    17   ar
    16    17    18   ar
    17    18    19   ar
    18    19    20    1
    19    19    21   ar
    20    21    22   ar
    21     2     3   ar
    22     3     4   ar
    23     4     5   ar
    24     5     6   ar
    25     6     7    1
    26     6     8   ar
    27     8     9   ar
    28     9    10    1
    29     9    11   ar
    30    11    12   ar
    31    12    13    2
    32    31    32    1
    33    32    33    1
    34    32    25    1
    35    12     1   ar
    36    22    16   ar
    37    11     4   ar
    38    27    34    1
    39    20    23    1
    40     7    14    1
    41    10    15    1
    42    33    35    1
@<TRIPOS>MOLECULE
*****
 39 42 0 0 0
SMALL
GASTEIGER

@<TRIPOS>ATOM
      1 C          62.8840   89.2987   12.1567 C.ar    1  UNL1        0.2144
      2 C          62.7330   89.7290   10.7276 C.ar    1  UNL1        0.1822
      3 O          63.4974   90.9139   10.2163 O.2     1  UNL1       -0.4500
      4 C          64.4130   91.6687   11.1340 C.ar    1  UNL1        0.1545
      5 C          65.1774   92.8536   10.6227 C.ar    1  UNL1        0.0744
      6 C          66.0929   93.6083   11.5404 C.ar    1  UNL1        0.1397
      7 O          66.8574   94.7933   11.0290 O.3     1  UNL1       -0.5053
      8 C          66.2440   93.1781   12.9694 C.ar    1  UNL1        0.0735
      9 C          65.4795   91.9932   13.4807 C.ar    1  UNL1        0.1428
     10 O          65.6306   91.5630   14.9097 O.3     1  UNL1       -0.5052
     11 C          64.5640   91.2385   12.5630 C.ar    1  UNL1        0.1104
     12 C          63.7995   90.0535   13.0744 C.ar    1  UNL1        0.2382
     13 O          63.9506   89.6233   14.5034 O.2     1  UNL1       -0.2830
     14 H          66.7631   95.0621   10.1364 H       1  UNL1        0.2922
     15 H          66.2025   92.0345   15.4830 H       1  UNL1        0.2922
     16 C          61.8174   88.9742    9.8099 C.ar    1  UNL1        0.0379
     17 C          60.4964   89.5653    9.4157 C.ar    1  UNL1        0.0062
     18 C          59.5809   88.8105    8.4980 C.ar    1  UNL1        0.0367
     19 C          59.9864   87.4646    7.9747 C.ar    1  UNL1        0.1337
     20 O          59.0709   86.7098    7.0570 O.3     1  UNL1       -0.5055
     21 C          61.3074   86.8734    8.3689 C.ar    1  UNL1        0.0367
     22 C          62.2229   87.6282    9.2865 C.ar    1  UNL1        0.0062
     23 H          58.2457   87.0791    6.8107 H       1  UNL1        0.2922
     24 O          62.1195   88.1137   12.6680 O.3     1  UNL1       -0.4441
     25 C          63.0565   84.2703   12.3525 C.3     1  UNL1        0.2306
     26 C          64.2183   84.1832   13.2973 C.3     1  UNL1        0.1804
     27 O          64.9178   82.8730   13.5071 O.3     1  UNL1       -0.3785
     28 C          64.6805   85.4064   14.0325 C.3     1  UNL1        0.1494
     29 C          65.8422   85.3193   14.9773 C.3     1  UNL1        0.0349
     30 O          63.9809   86.7165   13.8227 O.3     1  UNL1       -0.3186
     31 C          62.8191   86.8036   12.8778 C.3     1  UNL1        0.3194
     32 C          62.3569   85.5804   12.1427 C.3     1  UNL1        0.2240
     33 O          61.1952   85.6675   11.1979 O.3     1  UNL1       -0.3758
     34 H          65.6403   82.9905   14.1437 H       1  UNL1        0.2106
     35 H          60.8612   86.5780   11.1792 H       1  UNL1        0.2107
     36 O          62.5944   83.0471   11.6175 O.3     1  UNL1       -0.4468
     37 C          63.2458   80.8397   10.4120 C.3     1  UNL1        0.1212
     38 C          63.5666   82.2540   10.7954 C.2     1  UNL1        0.3176
     39 O          64.8595   82.8751   10.3568 O.2     1  UNL1       -0.2501
@<TRIPOS>BOND
     1    37    38    1
     2    38    39    2
     3    38    36    1
     4    25    36    1
     5    25    26    1
     6    26    27    1
     7    26    28    1
     8    28    29    1
     9    28    30    1
    10    30    31    1
    11    31    24    1
    12    24     1    1
    13     1     2   ar
    14     2    16    1
    15    16    17   ar
    16    17    18   ar
    17    18    19   ar
    18    19    20    1
    19    19    21   ar
    20    21    22   ar
    21     2     3   ar
    22     3     4   ar
    23     4     5   ar
    24     5     6   ar
    25     6     7    1
    26     6     8   ar
    27     8     9   ar
    28     9    10    1
    29     9    11   ar
    30    11    12   ar
    31    12    13    2
    32    31    32    1
    33    32    33    1
    34    32    25    1
    35    12     1   ar
    36    22    16   ar
    37    11     4   ar
    38    27    34    1
    39    20    23    1
    40     7    14    1
    41    10    15    1
    42    33    35    1
@<TRIPOS>MOLECULE
*****
 39 42 0 0 0
SMALL
GASTEIGER

@<TRIPOS>ATOM
      1 C          62.3158   87.7462   11.8497 C.ar    1  UNL1        0.2144
      2 C          61.8289   86.8905   10.7181 C.ar    1  UNL1        0.1822
      3 O          62.1804   85.4329   10.6749 O.2     1  UNL1       -0.4500
      4 C          63.0188   84.8310   11.7634 C.ar    1  UNL1        0.1545
      5 C          63.3702   83.3734   11.7202 C.ar    1  UNL1        0.0744
      6 C          64.2086   82.7716   12.8087 C.ar    1  UNL1        0.1397
      7 O          64.5601   81.3139   12.7656 O.3     1  UNL1       -0.5053
      8 C          64.6956   83.6273   13.9404 C.ar    1  UNL1        0.0735
      9 C          64.3441   85.0849   13.9836 C.ar    1  UNL1        0.1428
     10 O          64.8310   85.9406   15.1152 O.3     1  UNL1       -0.5052
     11 C          63.5057   85.6867   12.8951 C.ar    1  UNL1        0.1104
     12 C          63.1542   87.1443   12.9382 C.ar    1  UNL1        0.2382
     13 O          63.6411   88.0001   14.0699 O.2     1  UNL1       -0.2830
     14 H          64.2560   80.7794   12.0587 H       1  UNL1        0.2922
     15 H          65.3547   85.5646   15.7952 H       1  UNL1        0.2922
     16 C          60.9905   87.4924    9.6295 C.ar    1  UNL1        0.0379
     17 C          60.1580   86.6088    8.7486 C.ar    1  UNL1        0.0062
     18 C          59.3196   87.2107    7.6601 C.ar    1  UNL1        0.0367
     19 C          59.3137   88.6963    7.4526 C.ar    1  UNL1        0.1337
     20 O          58.4753   89.2982    6.3641 O.3     1  UNL1       -0.5055
     21 C          60.1462   89.5799    8.3336 C.ar    1  UNL1        0.0367
     22 C          60.9845   88.9780    9.4221 C.ar    1  UNL1        0.0062
     23 H          57.9553   88.7462    5.8138 H       1  UNL1        0.2922
     24 O          61.9643   89.2038   11.8929 O.3     1  UNL1       -0.4441
     25 C          64.4466   91.7037   13.7201 C.3     1  UNL1        0.2306
     26 C          65.1859   92.2767   12.5475 C.3     1  UNL1        0.1804
     27 O          66.2598   93.3010   12.7657 O.3     1  UNL1       -0.3785
     28 C          64.8514   91.8255   11.1566 C.3     1  UNL1        0.1494
     29 C          65.5907   92.3985    9.9840 C.3     1  UNL1        0.0349
     30 O          63.7775   90.8012   10.9384 O.3     1  UNL1       -0.3186
     31 C          63.0382   90.2281   12.1111 C.3     1  UNL1        0.3194
     32 C          63.3727   90.6794   13.5019 C.3     1  UNL1        0.2240
     33 O          62.6334   90.1064   14.6745 O.3     1  UNL1       -0.3758
     34 H          66.6337   93.5647   11.9104 H       1  UNL1        0.2106
     35 H          61.9782   89.4635   14.3608 H       1  UNL1        0.2107
     36 O          64.7811   92.1550   15.1109 O.3     1  UNL1       -0.4468
     37 C          67.1796   91.1656   14.9751 C.3     1  UNL1        0.1212
     38 C          66.2032   92.1259   15.5872 C.2     1  UNL1        0.3176
     39 O          66.6489   93.0569   16.6755 O.2     1  UNL1       -0.2501
@<TRIPOS>BOND
     1    37    38    1
     2    38    39    2
     3    38    36    1
     4    25    36    1
     5    25    26    1
     6    26    27    1
     7    26    28    1
     8    28    29    1
     9    28    30    1
    10    30    31    1
    11    31    24    1
    12    24     1    1
    13     1     2   ar
    14     2    16    1
    15    16    17   ar
    16    17    18   ar
    17    18    19   ar
    18    19    20    1
    19    19    21   ar
    20    21    22   ar
    21     2     3   ar
    22     3     4   ar
    23     4     5   ar
    24     5     6   ar
    25     6     7    1
    26     6     8   ar
    27     8     9   ar
    28     9    10    1
    29     9    11   ar
    30    11    12   ar
    31    12    13    2
    32    31    32    1
    33    32    33    1
    34    32    25    1
    35    12     1   ar
    36    22    16   ar
    37    11     4   ar
    38    27    34    1
    39    20    23    1
    40     7    14    1
    41    10    15    1
    42    33    35    1
@<TRIPOS>MOLECULE
*****
 39 42 0 0 0
SMALL
GASTEIGER

@<TRIPOS>ATOM
      1 C          63.5305   89.8068   13.6041 C.ar    1  UNL1        0.2144
      2 C          64.3622   89.0794   14.6186 C.ar    1  UNL1        0.1822
      3 O          65.6940   89.6321   15.0319 O.2     1  UNL1       -0.4500
      4 C          66.1942   90.9121   14.4307 C.ar    1  UNL1        0.1545
      5 C          67.5260   91.4648   14.8440 C.ar    1  UNL1        0.0744
      6 C          68.0261   92.7448   14.2428 C.ar    1  UNL1        0.1397
      7 O          69.3579   93.2975   14.6561 O.3     1  UNL1       -0.5053
      8 C          67.1943   93.4721   13.2283 C.ar    1  UNL1        0.0735
      9 C          65.8625   92.9195   12.8150 C.ar    1  UNL1        0.1428
     10 O          65.0308   93.6468   11.8005 O.3     1  UNL1       -0.5052
     11 C          65.3625   91.6395   13.4162 C.ar    1  UNL1        0.1104
     12 C          64.0306   91.0868   13.0029 C.ar    1  UNL1        0.2382
     13 O          63.1989   91.8141   11.9884 O.2     1  UNL1       -0.2830
     14 H          69.8775   92.8431   15.2898 H       1  UNL1        0.2922
     15 H          65.3432   94.4464   11.4249 H       1  UNL1        0.2922
     16 C          63.8621   87.7993   15.2198 C.ar    1  UNL1        0.0379
     17 C          64.1223   86.4940   14.5282 C.ar    1  UNL1        0.0062
     18 C          63.6221   85.2140   15.1294 C.ar    1  UNL1        0.0367
     19 C          62.8618   85.2394   16.4222 C.ar    1  UNL1        0.1337
     20 O          62.3617   83.9593   17.0234 O.3     1  UNL1       -0.5055
     21 C          62.6016   86.5448   17.1137 C.ar    1  UNL1        0.0367
     22 C          63.1018   87.8247   16.5125 C.ar    1  UNL1        0.0062
     23 H          62.5242   83.1439   16.5913 H       1  UNL1        0.2922
     24 O          62.1987   89.2541   13.1908 O.3     1  UNL1       -0.4441
     25 C          61.4041   88.2095    9.4455 C.3     1  UNL1        0.2306
     26 C          61.8532   86.7783    9.4489 C.3     1  UNL1        0.1804
     27 O          61.7380   85.9531    8.2017 O.3     1  UNL1       -0.3785
     28 C          62.4175   86.1723   10.6997 C.3     1  UNL1        0.1494
     29 C          62.8666   84.7412   10.7032 C.3     1  UNL1        0.0349
     30 O          62.5326   86.9976   11.9470 O.3     1  UNL1       -0.3186
     31 C          62.0835   88.4288   11.9435 C.3     1  UNL1        0.3194
     32 C          61.5192   89.0347   10.6927 C.3     1  UNL1        0.2240
     33 O          61.0701   90.4659   10.6893 O.3     1  UNL1       -0.3758
     34 H          62.0699   85.0581    8.3743 H       1  UNL1        0.2106
     35 H          61.2125   90.8516   11.5678 H       1  UNL1        0.2107
     36 O          60.8398   88.8154    8.1947 O.3     1  UNL1       -0.4468
     37 C          58.7658   89.2416    6.6890 C.3     1  UNL1        0.1212
     38 C          59.4796   88.4077    7.7114 C.2     1  UNL1        0.3176
     39 O          58.8331   87.1662    8.2505 O.2     1  UNL1       -0.2501
@<TRIPOS>BOND
     1    37    38    1
     2    38    39    2
     3    38    36    1
     4    25    36    1
     5    25    26    1
     6    26    27    1
     7    26    28    1
     8    28    29    1
     9    28    30    1
    10    30    31    1
    11    31    24    1
    12    24     1    1
    13     1     2   ar
    14     2    16    1
    15    16    17   ar
    16    17    18   ar
    17    18    19   ar
    18    19    20    1
    19    19    21   ar
    20    21    22   ar
    21     2     3   ar
    22     3     4   ar
    23     4     5   ar
    24     5     6   ar
    25     6     7    1
    26     6     8   ar
    27     8     9   ar
    28     9    10    1
    29     9    11   ar
    30    11    12   ar
    31    12    13    2
    32    31    32    1
    33    32    33    1
    34    32    25    1
    35    12     1   ar
    36    22    16   ar
    37    11     4   ar
    38    27    34    1
    39    20    23    1
    40     7    14    1
    41    10    15    1
    42    33    35    1
@<TRIPOS>MOLECULE
*****
 39 42 0 0 0
SMALL
GASTEIGER

@<TRIPOS>ATOM
      1 C          62.9556   86.9077   11.7916 C.ar    1  UNL1        0.2144
      2 C          62.3020   85.5915   11.4908 C.ar    1  UNL1        0.1822
      3 O          61.2108   85.5131   10.4646 O.2     1  UNL1       -0.4500
      4 C          60.7731   86.7509    9.7391 C.ar    1  UNL1        0.1545
      5 C          59.6820   86.6725    8.7129 C.ar    1  UNL1        0.0744
      6 C          59.2443   87.9104    7.9875 C.ar    1  UNL1        0.1397
      7 O          58.1531   87.8320    6.9613 O.3     1  UNL1       -0.5053
      8 C          59.8979   89.2266    8.2883 C.ar    1  UNL1        0.0735
      9 C          60.9891   89.3050    9.3145 C.ar    1  UNL1        0.1428
     10 O          61.6426   90.6212    9.6153 O.3     1  UNL1       -0.5052
     11 C          61.4267   88.0672   10.0399 C.ar    1  UNL1        0.1104
     12 C          62.5179   88.1455   11.0662 C.ar    1  UNL1        0.2382
     13 O          63.1715   89.4617   11.3670 O.2     1  UNL1       -0.2830
     14 H          57.7449   87.0098    6.7734 H       1  UNL1        0.2922
     15 H          61.3692   91.3944    9.1622 H       1  UNL1        0.2922
     16 C          62.7397   84.3536   12.2163 C.ar    1  UNL1        0.0379
     17 C          63.5081   83.2903   11.4891 C.ar    1  UNL1        0.0062
     18 C          63.9457   82.0525   12.2146 C.ar    1  UNL1        0.0367
     19 C          63.6150   81.8781   13.6672 C.ar    1  UNL1        0.1337
     20 O          64.0527   80.6403   14.3927 O.3     1  UNL1       -0.5055
     21 C          62.8466   82.9415   14.3944 C.ar    1  UNL1        0.0367
     22 C          62.4090   84.1792   13.6689 C.ar    1  UNL1        0.0062
     23 H          64.5327   79.9760   13.9385 H       1  UNL1        0.2922
     24 O          64.0468   86.9861   12.8179 O.3     1  UNL1       -0.4441
     25 C          63.6200   89.8273   15.5556 C.3     1  UNL1        0.2306
     26 C          63.2822   89.0071   16.7651 C.3     1  UNL1        0.1804
     27 O          63.0274   89.6808   18.0809 O.3     1  UNL1       -0.3785
     28 C          63.1993   87.5131   16.6590 C.3     1  UNL1        0.1494
     29 C          62.8615   86.6929   17.8686 C.3     1  UNL1        0.0349
     30 O          63.4541   86.8395   15.3433 O.3     1  UNL1       -0.3186
     31 C          63.7919   87.6597   14.1336 C.3     1  UNL1        0.3194
     32 C          63.8749   89.1537   14.2398 C.3     1  UNL1        0.2240
     33 O          64.2127   89.9739   13.0303 O.3     1  UNL1       -0.3758
     34 H          62.8243   89.0115   18.7529 H       1  UNL1        0.2106
     35 H          64.3460   89.3876   12.2690 H       1  UNL1        0.2107
     36 O          63.7030   91.3213   15.6617 O.3     1  UNL1       -0.4468
     37 C          66.1965   91.9443   15.2818 C.3     1  UNL1        0.1212
     38 C          64.9675   91.9700   16.1415 C.2     1  UNL1        0.3176
     39 O          65.0030   92.6444   17.4808 O.2     1  UNL1       -0.2501
@<TRIPOS>BOND
     1    37    38    1
     2    38    39    2
     3    38    36    1
     4    25    36    1
     5    25    26    1
     6    26    27    1
     7    26    28    1
     8    28    29    1
     9    28    30    1
    10    30    31    1
    11    31    24    1
    12    24     1    1
    13     1     2   ar
    14     2    16    1
    15    16    17   ar
    16    17    18   ar
    17    18    19   ar
    18    19    20    1
    19    19    21   ar
    20    21    22   ar
    21     2     3   ar
    22     3     4   ar
    23     4     5   ar
    24     5     6   ar
    25     6     7    1
    26     6     8   ar
    27     8     9   ar
    28     9    10    1
    29     9    11   ar
    30    11    12   ar
    31    12    13    2
    32    31    32    1
    33    32    33    1
    34    32    25    1
    35    12     1   ar
    36    22    16   ar
    37    11     4   ar
    38    27    34    1
    39    20    23    1
    40     7    14    1
    41    10    15    1
    42    33    35    1
@<TRIPOS>MOLECULE
*****
 39 42 0 0 0
SMALL
GASTEIGER

@<TRIPOS>ATOM
      1 C          62.9825   89.3152   12.5198 C.ar    1  UNL1        0.2144
      2 C          63.8040   89.4349   13.7691 C.ar    1  UNL1        0.1822
      3 O          64.7873   90.5582   13.9155 O.2     1  UNL1       -0.4500
      4 C          64.9489   91.5619   12.8125 C.ar    1  UNL1        0.1545
      5 C          65.9321   92.6852   12.9588 C.ar    1  UNL1        0.0744
      6 C          66.0938   93.6889   11.8559 C.ar    1  UNL1        0.1397
      7 O          67.0770   94.8122   12.0022 O.3     1  UNL1       -0.5053
      8 C          65.2722   93.5692   10.6066 C.ar    1  UNL1        0.0735
      9 C          64.2890   92.4459   10.4603 C.ar    1  UNL1        0.1428
     10 O          63.4674   92.3263    9.2110 O.3     1  UNL1       -0.5052
     11 C          64.1274   91.4423   11.5632 C.ar    1  UNL1        0.1104
     12 C          63.1441   90.3189   11.4169 C.ar    1  UNL1        0.2382
     13 O          62.3225   90.1992   10.1676 O.2     1  UNL1       -0.2830
     14 H          67.5902   94.8870   12.7826 H       1  UNL1        0.2922
     15 H          63.5684   92.9532    8.5220 H       1  UNL1        0.2922
     16 C          63.6424   88.4312   14.8721 C.ar    1  UNL1        0.0379
     17 C          62.9059   88.8049   16.1242 C.ar    1  UNL1        0.0062
     18 C          62.7443   87.8012   17.2271 C.ar    1  UNL1        0.0367
     19 C          63.3191   86.4237   17.0778 C.ar    1  UNL1        0.1337
     20 O          63.1574   85.4200   18.1808 O.3     1  UNL1       -0.5055
     21 C          64.0555   86.0500   15.8257 C.ar    1  UNL1        0.0367
     22 C          64.2172   87.0537   14.7228 C.ar    1  UNL1        0.0062
     23 H          62.6973   85.6535   18.9630 H       1  UNL1        0.2922
     24 O          61.9992   88.1919   12.3735 O.3     1  UNL1       -0.4441
     25 C          62.8397   85.4761    9.6044 C.3     1  UNL1        0.2306
     26 C          63.2720   84.3227   10.4605 C.3     1  UNL1        0.1804
     27 O          63.6962   83.0330    9.8228 O.3     1  UNL1       -0.3785
     28 C          63.2800   84.4590   11.9543 C.3     1  UNL1        0.1494
     29 C          63.7122   83.3057   12.8104 C.3     1  UNL1        0.0349
     30 O          62.8557   85.7487   12.5920 O.3     1  UNL1       -0.3186
     31 C          62.4235   86.9021   11.7359 C.3     1  UNL1        0.3194
     32 C          62.4155   86.7658   10.2421 C.3     1  UNL1        0.2240
     33 O          61.9832   87.9191    9.3861 O.3     1  UNL1       -0.3758
     34 H          63.9426   82.3970   10.5125 H       1  UNL1        0.2106
     35 H          61.7436   88.6697    9.9518 H       1  UNL1        0.2107
     36 O          62.8317   85.3397    8.1107 O.3     1  UNL1       -0.4468
     37 C          61.4627   84.4076    6.1089 C.3     1  UNL1        0.1212
     38 C          61.5304   85.2066    7.3767 C.2     1  UNL1        0.3176
     39 O          60.2968   85.8725    7.9103 O.2     1  UNL1       -0.2501
@<TRIPOS>BOND
     1    37    38    1
     2    38    39    2
     3    38    36    1
     4    25    36    1
     5    25    26    1
     6    26    27    1
     7    26    28    1
     8    28    29    1
     9    28    30    1
    10    30    31    1
    11    31    24    1
    12    24     1    1
    13     1     2   ar
    14     2    16    1
    15    16    17   ar
    16    17    18   ar
    17    18    19   ar
    18    19    20    1
    19    19    21   ar
    20    21    22   ar
    21     2     3   ar
    22     3     4   ar
    23     4     5   ar
    24     5     6   ar
    25     6     7    1
    26     6     8   ar
    27     8     9   ar
    28     9    10    1
    29     9    11   ar
    30    11    12   ar
    31    12    13    2
    32    31    32    1
    33    32    33    1
    34    32    25    1
    35    12     1   ar
    36    22    16   ar
    37    11     4   ar
    38    27    34    1
    39    20    23    1
    40     7    14    1
    41    10    15    1
    42    33    35    1
@<TRIPOS>MOLECULE
*****
 39 42 0 0 0
SMALL
GASTEIGER

@<TRIPOS>ATOM
      1 C          63.2116   87.7348   11.9522 C.ar    1  UNL1        0.2144
      2 C          62.8546   89.1896   12.0309 C.ar    1  UNL1        0.1822
      3 O          61.8358   89.7637   11.0916 O.2     1  UNL1       -0.4500
      4 C          61.1740   88.8831   10.0734 C.ar    1  UNL1        0.1545
      5 C          60.1552   89.4572    9.1341 C.ar    1  UNL1        0.0744
      6 C          59.4935   88.5765    8.1160 C.ar    1  UNL1        0.1397
      7 O          58.4746   89.1506    7.1766 O.3     1  UNL1       -0.5053
      8 C          59.8505   87.1218    8.0373 C.ar    1  UNL1        0.0735
      9 C          60.8693   86.5477    8.9766 C.ar    1  UNL1        0.1428
     10 O          61.2263   85.0929    8.8979 O.3     1  UNL1       -0.5052
     11 C          61.5310   87.4283    9.9947 C.ar    1  UNL1        0.1104
     12 C          62.5499   86.8542   10.9341 C.ar    1  UNL1        0.2382
     13 O          62.9069   85.3994   10.8554 O.2     1  UNL1       -0.2830
     14 H          58.2516   90.0594    7.2257 H       1  UNL1        0.2922
     15 H          60.8129   84.5428    8.2619 H       1  UNL1        0.2922
     16 C          63.5164   90.0702   13.0491 C.ar    1  UNL1        0.0379
     17 C          64.5501   91.0684   12.6188 C.ar    1  UNL1        0.0062
     18 C          65.2118   91.9489   13.6369 C.ar    1  UNL1        0.0367
     19 C          64.8399   91.8314   15.0853 C.ar    1  UNL1        0.1337
     20 O          65.5017   92.7121   16.1034 O.3     1  UNL1       -0.5055
     21 C          63.8062   90.8333   15.5156 C.ar    1  UNL1        0.0367
     22 C          63.1444   89.9527   14.4974 C.ar    1  UNL1        0.0062
     23 H          66.1474   93.3356   15.8347 H       1  UNL1        0.2922
     24 O          64.2304   87.1607   12.8916 O.3     1  UNL1       -0.4441
     25 C          63.4417   83.7944   14.8398 C.3     1  UNL1        0.2306
     26 C          62.9466   84.3338   16.1489 C.3     1  UNL1        0.1804
     27 O          62.5187   83.3914   17.2347 O.3     1  UNL1       -0.3785
     28 C          62.8795   85.8156   16.3724 C.3     1  UNL1        0.1494
     29 C          62.3845   86.3550   17.6815 C.3     1  UNL1        0.0349
     30 O          63.3075   86.7579   15.2866 O.3     1  UNL1       -0.3186
     31 C          63.8025   86.2184   13.9774 C.3     1  UNL1        0.3194
     32 C          63.8696   84.7367   13.7540 C.3     1  UNL1        0.2240
     33 O          64.3646   84.1973   12.4449 O.3     1  UNL1       -0.3758
     34 H          62.2286   83.8998   18.0082 H       1  UNL1        0.2106
     35 H          64.5984   84.9343   11.8591 H       1  UNL1        0.2107
     36 O          63.5088   82.3126   14.6164 O.3     1  UNL1       -0.4468
     37 C          62.6708   81.1202   12.4656 C.3     1  UNL1        0.1212
     38 C          62.4169   81.6183   13.8575 C.2     1  UNL1        0.3176
     39 O          61.0713   81.4222   14.4905 O.2     1  UNL1       -0.2501
@<TRIPOS>BOND
     1    37    38    1
     2    38    39    2
     3    38    36    1
     4    25    36    1
     5    25    26    1
     6    26    27    1
     7    26    28    1
     8    28    29    1
     9    28    30    1
    10    30    31    1
    11    31    24    1
    12    24     1    1
    13     1     2   ar
    14     2    16    1
    15    16    17   ar
    16    17    18   ar
    17    18    19   ar
    18    19    20    1
    19    19    21   ar
    20    21    22   ar
    21     2     3   ar
    22     3     4   ar
    23     4     5   ar
    24     5     6   ar
    25     6     7    1
    26     6     8   ar
    27     8     9   ar
    28     9    10    1
    29     9    11   ar
    30    11    12   ar
    31    12    13    2
    32    31    32    1
    33    32    33    1
    34    32    25    1
    35    12     1   ar
    36    22    16   ar
    37    11     4   ar
    38    27    34    1
    39    20    23    1
    40     7    14    1
    41    10    15    1
    42    33    35    1
