@<TRIPOS>MOLECULE
*****
 23 24 0 0 0
SMALL
GASTEIGER

@<TRIPOS>ATOM
      1 C          63.6897   91.1883   12.4444 C.ar    1  UNL1        0.0508
      2 C          64.0642   90.9090   13.8698 C.ar    1  UNL1        0.0147
      3 C          65.4194   91.3007   14.3797 C.ar    1  UNL1        0.0014
      4 C          66.4001   91.9718   13.4644 C.ar    1  UNL1        0.0032
      5 C          66.0255   92.2511   12.0390 C.ar    1  UNL1        0.0384
      6 C          64.6703   91.8594   11.5291 C.ar    1  UNL1        0.0178
      7 C          67.0062   92.9222   11.1235 C.ar    1  UNL1        0.1806
      8 N          66.9383   94.3432   10.6479 N.ar    1  UNL1       -0.1083
      9 N          68.1170   94.5894    9.7534 N.ar    1  UNL1       -0.0229
     10 N          68.9133   93.3205    9.6763 N.ar    1  UNL1       -0.0464
     11 N          68.2268   92.2902   10.5231 N.ar    1  UNL1       -0.2388
     12 H          68.5250   91.3621   10.6606 H       1  UNL1        0.1923
     13 C          61.9893   89.3475   11.7588 C.2     1  UNL1        0.3256
     14 O          62.9993   88.2900   12.0932 O.2     1  UNL1       -0.2627
     15 N          62.3345   90.7966   11.9345 N.am    1  UNL1       -0.2750
     16 H          61.6716   91.4907   11.7151 H       1  UNL1        0.1554
     17 C          60.6342   88.9558   11.2489 C.2     1  UNL1        0.3958
     18 O          59.5134   88.7052   12.2137 O.2     1  UNL1       -0.2397
     19 O          60.3998   88.8148    9.7740 O.3     1  UNL1       -0.4423
     20 C          59.9906   87.4894    9.2030 C.3     1  UNL1        0.2089
     21 C          60.8559   86.2825    9.4140 C.3     1  UNL1        0.0475
     22 C          62.9781   85.3216    8.2637 C.3     1  UNL1        0.0001
     23 C          62.3275   86.3564    9.1332 C.3     1  UNL1        0.0038
@<TRIPOS>BOND
     1    22    23    1
     2    23    21    1
     3    21    20    1
     4    20    19    1
     5    19    17    1
     6    17    18    2
     7    17    13    1
     8    13    14    2
     9    13    15   am
    10    15     1    1
    11     1     2   ar
    12     2     3   ar
    13     3     4   ar
    14     4     5   ar
    15     5     7    1
    16     7     8   ar
    17     8     9   ar
    18     9    10   ar
    19    10    11   ar
    20     5     6   ar
    21     6     1   ar
    22    11     7   ar
    23    15    16    1
    24    11    12    1
@<TRIPOS>MOLECULE
*****
 23 24 0 0 0
SMALL
GASTEIGER

@<TRIPOS>ATOM
      1 C          64.0147   88.3616   15.2585 C.ar    1  UNL1        0.0508
      2 C          63.3780   88.5940   16.5966 C.ar    1  UNL1        0.0147
      3 C          62.8520   87.4338   17.3885 C.ar    1  UNL1        0.0014
      4 C          62.9627   86.0412   16.8424 C.ar    1  UNL1        0.0032
      5 C          63.5994   85.8088   15.5043 C.ar    1  UNL1        0.0384
      6 C          64.1254   86.9690   14.7124 C.ar    1  UNL1        0.0178
      7 C          63.7101   84.4161   14.9582 C.ar    1  UNL1        0.1806
      8 N          64.4361   84.0143   13.7085 N.ar    1  UNL1       -0.1083
      9 N          64.2890   82.5306   13.5437 N.ar    1  UNL1       -0.0229
     10 N          63.4722   82.0155   14.6916 N.ar    1  UNL1       -0.0464
     11 N          63.1144   83.1808   15.5657 N.ar    1  UNL1       -0.2388
     12 H          62.5821   83.1417   16.3930 H       1  UNL1        0.1923
     13 C          63.6766   90.1749   13.4289 C.2     1  UNL1        0.3256
     14 O          62.2864   89.6678   13.1832 O.2     1  UNL1       -0.2627
     15 N          64.5407   89.5218   14.4665 N.am    1  UNL1       -0.2750
     16 H          65.4531   89.8547   14.6277 H       1  UNL1        0.1554
     17 C          64.2025   91.3351   12.6369 C.2     1  UNL1        0.3958
     18 O          63.8277   91.4889   11.1927 O.2     1  UNL1       -0.2397
     19 O          65.1034   92.3417   13.2892 O.3     1  UNL1       -0.4423
     20 C          66.5207   92.4935   12.8222 C.3     1  UNL1        0.2089
     21 C          67.6456   91.9441   13.6484 C.3     1  UNL1        0.0475
     22 C          67.3976   92.8313   16.0778 C.3     1  UNL1        0.0001
     23 C          67.4439   91.6844   15.1120 C.3     1  UNL1        0.0038
@<TRIPOS>BOND
     1    22    23    1
     2    23    21    1
     3    21    20    1
     4    20    19    1
     5    19    17    1
     6    17    18    2
     7    17    13    1
     8    13    14    2
     9    13    15   am
    10    15     1    1
    11     1     2   ar
    12     2     3   ar
    13     3     4   ar
    14     4     5   ar
    15     5     7    1
    16     7     8   ar
    17     8     9   ar
    18     9    10   ar
    19    10    11   ar
    20     5     6   ar
    21     6     1   ar
    22    11     7   ar
    23    15    16    1
    24    11    12    1
@<TRIPOS>MOLECULE
*****
 23 24 0 0 0
SMALL
GASTEIGER

@<TRIPOS>ATOM
      1 C          64.1940   89.1144   14.1167 C.ar    1  UNL1        0.0508
      2 C          63.3770   89.5937   12.9536 C.ar    1  UNL1        0.0147
      3 C          63.6636   90.9302   12.3359 C.ar    1  UNL1        0.0014
      4 C          64.7672   91.7874   12.8812 C.ar    1  UNL1        0.0032
      5 C          65.5841   91.3081   14.0443 C.ar    1  UNL1        0.0384
      6 C          65.2975   89.9715   14.6620 C.ar    1  UNL1        0.0178
      7 C          66.6877   92.1652   14.5897 C.ar    1  UNL1        0.1806
      8 N          68.0839   92.2546   14.0489 N.ar    1  UNL1       -0.1083
      9 N          68.8480   93.2281   14.8965 N.ar    1  UNL1       -0.0229
     10 N          67.9238   93.7404   15.9613 N.ar    1  UNL1       -0.0464
     11 N          66.5887   93.0835   15.7716 N.ar    1  UNL1       -0.2388
     12 H          65.7881   93.2294   16.3257 H       1  UNL1        0.1923
     13 C          63.3901   87.6967   16.1400 C.2     1  UNL1        0.3256
     14 O          63.1593   88.9521   16.9280 O.2     1  UNL1       -0.2627
     15 N          63.9074   87.7779   14.7345 N.am    1  UNL1       -0.2750
     16 H          64.0588   86.9539   14.2173 H       1  UNL1        0.1554
     17 C          63.1035   86.3602   16.7578 C.2     1  UNL1        0.3958
     18 O          62.2200   86.2665   17.9664 O.2     1  UNL1       -0.2397
     19 O          63.7004   85.1173   16.1669 O.3     1  UNL1       -0.4423
     20 C          62.8477   84.1895   15.3532 C.3     1  UNL1        0.2089
     21 C          63.2147   83.8872   13.9306 C.3     1  UNL1        0.0475
     22 C          62.5755   84.4719   11.4812 C.3     1  UNL1        0.0001
     23 C          62.9722   84.9095   12.8601 C.3     1  UNL1        0.0038
@<TRIPOS>BOND
     1    22    23    1
     2    23    21    1
     3    21    20    1
     4    20    19    1
     5    19    17    1
     6    17    18    2
     7    17    13    1
     8    13    14    2
     9    13    15   am
    10    15     1    1
    11     1     2   ar
    12     2     3   ar
    13     3     4   ar
    14     4     5   ar
    15     5     7    1
    16     7     8   ar
    17     8     9   ar
    18     9    10   ar
    19    10    11   ar
    20     5     6   ar
    21     6     1   ar
    22    11     7   ar
    23    15    16    1
    24    11    12    1
@<TRIPOS>MOLECULE
*****
 23 24 0 0 0
SMALL
GASTEIGER

@<TRIPOS>ATOM
      1 C          63.2498   84.6936   11.2286 C.ar    1  UNL1        0.0508
      2 C          63.5760   84.1250    9.8795 C.ar    1  UNL1        0.0147
      3 C          63.0917   84.8139    8.6382 C.ar    1  UNL1        0.0014
      4 C          62.2812   86.0715    8.7460 C.ar    1  UNL1        0.0032
      5 C          61.9550   86.6400   10.0952 C.ar    1  UNL1        0.0384
      6 C          62.4393   85.9511   11.3365 C.ar    1  UNL1        0.0178
      7 C          61.1444   87.8976   10.2031 C.ar    1  UNL1        0.1806
      8 N          60.6274   88.5072   11.4724 N.ar    1  UNL1       -0.1083
      9 N          59.8721   89.7527   11.1145 N.ar    1  UNL1       -0.0229
     10 N          59.9223   89.9129    9.6239 N.ar    1  UNL1       -0.0464
     11 N          60.7086   88.7664    9.0606 N.ar    1  UNL1       -0.2388
     12 H          60.9044   88.6114    8.1083 H       1  UNL1        0.1923
     13 C          63.0919   82.7247   12.9164 C.2     1  UNL1        0.3256
     14 O          61.9655   82.1336   12.1215 O.2     1  UNL1       -0.2627
     15 N          63.7341   84.0047   12.4700 N.am    1  UNL1       -0.2750
     16 H          64.4734   84.3926   12.9917 H       1  UNL1        0.1554
     17 C          63.5762   82.0358   14.1577 C.2     1  UNL1        0.3958
     18 O          63.8696   80.5650   14.1332 O.2     1  UNL1       -0.2397
     19 O          63.7672   82.8177   15.4235 O.3     1  UNL1       -0.4423
     20 C          63.1052   84.1538   15.5867 C.3     1  UNL1        0.2089
     21 C          63.9192   85.3513   15.9785 C.3     1  UNL1        0.0475
     22 C          64.3506   87.5551   14.6719 C.3     1  UNL1        0.0001
     23 C          64.6793   86.1154   14.9352 C.3     1  UNL1        0.0038
@<TRIPOS>BOND
     1    22    23    1
     2    23    21    1
     3    21    20    1
     4    20    19    1
     5    19    17    1
     6    17    18    2
     7    17    13    1
     8    13    14    2
     9    13    15   am
    10    15     1    1
    11     1     2   ar
    12     2     3   ar
    13     3     4   ar
    14     4     5   ar
    15     5     7    1
    16     7     8   ar
    17     8     9   ar
    18     9    10   ar
    19    10    11   ar
    20     5     6   ar
    21     6     1   ar
    22    11     7   ar
    23    15    16    1
    24    11    12    1
@<TRIPOS>MOLECULE
*****
 23 24 0 0 0
SMALL
GASTEIGER

@<TRIPOS>ATOM
      1 C          62.4502   87.8774   11.1099 C.ar    1  UNL1        0.0508
      2 C          61.8963   88.6485    9.9486 C.ar    1  UNL1        0.0147
      3 C          61.9508   90.1475    9.9492 C.ar    1  UNL1        0.0014
      4 C          62.5592   90.8755   11.1110 C.ar    1  UNL1        0.0032
      5 C          63.1132   90.1044   12.2722 C.ar    1  UNL1        0.0384
      6 C          63.0587   88.6054   12.2717 C.ar    1  UNL1        0.0178
      7 C          63.7217   90.8324   13.4341 C.ar    1  UNL1        0.1806
      8 N          64.8488   91.8196   13.3636 N.ar    1  UNL1       -0.1083
      9 N          65.1336   92.2983   14.7563 N.ar    1  UNL1       -0.0229
     10 N          64.1825   91.6068   15.6876 N.ar    1  UNL1       -0.0464
     11 N          63.3099   90.7009   14.8705 N.ar    1  UNL1       -0.2388
     12 H          62.5928   90.1217   15.2162 H       1  UNL1        0.1923
     13 C          62.9266   85.6082   12.2819 C.2     1  UNL1        0.3256
     14 O          63.5120   86.3370   13.4551 O.2     1  UNL1       -0.2627
     15 N          62.3958   86.3784   11.1093 N.am    1  UNL1       -0.2750
     16 H          62.0116   85.9001   10.3394 H       1  UNL1        0.1554
     17 C          62.8721   84.1092   12.2814 C.2     1  UNL1        0.3958
     18 O          63.1869   83.3477   11.0280 O.2     1  UNL1       -0.2397
     19 O          62.5029   83.3717   13.5343 O.3     1  UNL1       -0.4423
     20 C          63.4436   82.3558   14.1115 C.3     1  UNL1        0.2089
     21 C          63.3849   80.9306   13.6477 C.3     1  UNL1        0.0475
     22 C          60.8402   80.7224   14.1288 C.3     1  UNL1        0.0001
     23 C          62.0590   80.2858   13.3712 C.3     1  UNL1        0.0038
@<TRIPOS>BOND
     1    22    23    1
     2    23    21    1
     3    21    20    1
     4    20    19    1
     5    19    17    1
     6    17    18    2
     7    17    13    1
     8    13    14    2
     9    13    15   am
    10    15     1    1
    11     1     2   ar
    12     2     3   ar
    13     3     4   ar
    14     4     5   ar
    15     5     7    1
    16     7     8   ar
    17     8     9   ar
    18     9    10   ar
    19    10    11   ar
    20     5     6   ar
    21     6     1   ar
    22    11     7   ar
    23    15    16    1
    24    11    12    1
@<TRIPOS>MOLECULE
*****
 23 24 0 0 0
SMALL
GASTEIGER

@<TRIPOS>ATOM
      1 C          63.5644   86.4639   13.1177 C.ar    1  UNL1        0.0508
      2 C          62.8773   86.7537   11.8162 C.ar    1  UNL1        0.0147
      3 C          62.5635   88.1695   11.4327 C.ar    1  UNL1        0.0014
      4 C          62.9368   89.2955   12.3507 C.ar    1  UNL1        0.0032
      5 C          63.6238   89.0057   13.6521 C.ar    1  UNL1        0.0384
      6 C          63.9376   87.5900   14.0357 C.ar    1  UNL1        0.0178
      7 C          63.9971   90.1318   14.5702 C.ar    1  UNL1        0.1806
      8 N          65.2656   90.9305   14.5153 N.ar    1  UNL1       -0.1083
      9 N          65.2200   91.9491   15.6154 N.ar    1  UNL1       -0.0229
     10 N          63.9233   91.7799   16.3503 N.ar    1  UNL1       -0.0464
     11 N          63.1676   90.6567   15.7043 N.ar    1  UNL1       -0.2388
     12 H          62.2824   90.3228   15.9768 H       1  UNL1        0.1923
     13 C          63.0474   84.3499   14.5366 C.2     1  UNL1        0.3256
     14 O          61.9028   85.0674   15.1886 O.2     1  UNL1       -0.2627
     15 N          63.8782   85.0482   13.5012 N.am    1  UNL1       -0.2750
     16 H          64.6294   84.5772   13.0733 H       1  UNL1        0.1554
     17 C          63.3612   82.9341   14.9201 C.2     1  UNL1        0.3958
     18 O          64.6590   82.6112   15.5995 O.2     1  UNL1       -0.2397
     19 O          62.3772   81.8412   14.6243 O.3     1  UNL1       -0.4423
     20 C          62.2376   81.3161   13.2261 C.3     1  UNL1        0.2089
     21 C          63.3991   81.3851   12.2795 C.3     1  UNL1        0.0475
     22 C          64.3982   83.1124   10.6157 C.3     1  UNL1        0.0001
     23 C          63.2895   82.1842   11.0149 C.3     1  UNL1        0.0038
@<TRIPOS>BOND
     1    22    23    1
     2    23    21    1
     3    21    20    1
     4    20    19    1
     5    19    17    1
     6    17    18    2
     7    17    13    1
     8    13    14    2
     9    13    15   am
    10    15     1    1
    11     1     2   ar
    12     2     3   ar
    13     3     4   ar
    14     4     5   ar
    15     5     7    1
    16     7     8   ar
    17     8     9   ar
    18     9    10   ar
    19    10    11   ar
    20     5     6   ar
    21     6     1   ar
    22    11     7   ar
    23    15    16    1
    24    11    12    1
@<TRIPOS>MOLECULE
*****
 23 24 0 0 0
SMALL
GASTEIGER

@<TRIPOS>ATOM
      1 C          61.9991   86.7084   11.1481 C.ar    1  UNL1        0.0508
      2 C          60.7646   86.9635   10.3353 C.ar    1  UNL1        0.0147
      3 C          60.3566   88.3704   10.0125 C.ar    1  UNL1        0.0014
      4 C          61.1831   89.5222   10.5026 C.ar    1  UNL1        0.0032
      5 C          62.4176   89.2671   11.3154 C.ar    1  UNL1        0.0384
      6 C          62.8256   87.8602   11.6382 C.ar    1  UNL1        0.0178
      7 C          63.2442   90.4189   11.8056 C.ar    1  UNL1        0.1806
      8 N          64.0475   91.3542   10.9512 N.ar    1  UNL1       -0.1083
      9 N          64.7124   92.3509   11.8536 N.ar    1  UNL1       -0.0229
     10 N          64.3200   92.0316   13.2658 N.ar    1  UNL1       -0.0464
     11 N          63.4126   90.8376   13.2360 N.ar    1  UNL1       -0.2388
     12 H          63.0000   90.4047   14.0181 H       1  UNL1        0.1923
     13 C          63.0485   84.4465   10.4186 C.2     1  UNL1        0.3256
     14 O          63.2819   84.9983    9.0434 O.2     1  UNL1       -0.2627
     15 N          62.4071   85.3015   11.4709 N.am    1  UNL1       -0.2750
     16 H          62.2539   84.9393   12.3735 H       1  UNL1        0.1554
     17 C          63.4565   83.0396   10.7414 C.2     1  UNL1        0.3958
     18 O          64.8247   82.5510   10.3680 O.2     1  UNL1       -0.2397
     19 O          62.4963   82.1212   11.4376 O.3     1  UNL1       -0.4423
     20 C          63.0120   80.9482   12.2174 C.3     1  UNL1        0.2089
     21 C          62.8130   80.8892   13.7029 C.3     1  UNL1        0.0475
     22 C          62.5725   83.1121   15.0262 C.3     1  UNL1        0.0001
     23 C          61.9488   81.9080   14.3849 C.3     1  UNL1        0.0038
@<TRIPOS>BOND
     1    22    23    1
     2    23    21    1
     3    21    20    1
     4    20    19    1
     5    19    17    1
     6    17    18    2
     7    17    13    1
     8    13    14    2
     9    13    15   am
    10    15     1    1
    11     1     2   ar
    12     2     3   ar
    13     3     4   ar
    14     4     5   ar
    15     5     7    1
    16     7     8   ar
    17     8     9   ar
    18     9    10   ar
    19    10    11   ar
    20     5     6   ar
    21     6     1   ar
    22    11     7   ar
    23    15    16    1
    24    11    12    1
@<TRIPOS>MOLECULE
*****
 23 24 0 0 0
SMALL
GASTEIGER

@<TRIPOS>ATOM
      1 C          62.7285   87.5986   11.9787 C.ar    1  UNL1        0.0508
      2 C          63.3274   88.9373   12.2933 C.ar    1  UNL1        0.0147
      3 C          62.9456   90.1393   11.4812 C.ar    1  UNL1        0.0014
      4 C          61.9649   90.0026   10.3545 C.ar    1  UNL1        0.0032
      5 C          61.3660   88.6638   10.0399 C.ar    1  UNL1        0.0384
      6 C          61.7478   87.4618   10.8520 C.ar    1  UNL1        0.0178
      7 C          60.3852   88.5270    8.9132 C.ar    1  UNL1        0.1806
      8 N          59.5438   87.3207    8.6183 N.ar    1  UNL1       -0.1083
      9 N          58.7123   87.6206    7.4064 N.ar    1  UNL1       -0.0229
     10 N          59.0398   89.0122    6.9524 N.ar    1  UNL1       -0.0464
     11 N          60.0738   89.5724    7.8836 N.ar    1  UNL1       -0.2388
     12 H          60.4771   90.4688    7.8286 H       1  UNL1        0.1923
     13 C          63.8084   86.5715   14.1068 C.2     1  UNL1        0.3256
     14 O          64.1247   87.9485   14.6109 O.2     1  UNL1       -0.2627
     15 N          63.1103   86.3966   12.7907 N.am    1  UNL1       -0.2750
     16 H          62.9027   85.4929   12.4599 H       1  UNL1        0.1554
     17 C          64.1902   85.3695   14.9189 C.2     1  UNL1        0.3958
     18 O          64.1715   85.4398   16.4171 O.2     1  UNL1       -0.2397
     19 O          64.5907   84.0972   14.2326 O.3     1  UNL1       -0.4423
     20 C          63.8952   82.8118   14.5705 C.3     1  UNL1        0.2089
     21 C          62.3967   82.7459   14.5646 C.3     1  UNL1        0.0475
     22 C          62.4717   80.3970   13.4569 C.3     1  UNL1        0.0001
     23 C          61.7032   81.4813   14.1525 C.3     1  UNL1        0.0038
@<TRIPOS>BOND
     1    22    23    1
     2    23    21    1
     3    21    20    1
     4    20    19    1
     5    19    17    1
     6    17    18    2
     7    17    13    1
     8    13    14    2
     9    13    15   am
    10    15     1    1
    11     1     2   ar
    12     2     3   ar
    13     3     4   ar
    14     4     5   ar
    15     5     7    1
    16     7     8   ar
    17     8     9   ar
    18     9    10   ar
    19    10    11   ar
    20     5     6   ar
    21     6     1   ar
    22    11     7   ar
    23    15    16    1
    24    11    12    1
@<TRIPOS>MOLECULE
*****
 23 24 0 0 0
SMALL
GASTEIGER

@<TRIPOS>ATOM
      1 C          62.5149   86.2246   11.9554 C.ar    1  UNL1        0.0508
      2 C          63.2461   87.3994   12.5343 C.ar    1  UNL1        0.0147
      3 C          63.0264   88.7718   11.9702 C.ar    1  UNL1        0.0014
      4 C          62.0755   88.9694   10.8271 C.ar    1  UNL1        0.0032
      5 C          61.3443   87.7947   10.2482 C.ar    1  UNL1        0.0384
      6 C          61.5640   86.4223   10.8123 C.ar    1  UNL1        0.0178
      7 C          60.3933   87.9923    9.1050 C.ar    1  UNL1        0.1806
      8 N          59.4231   86.9761    8.5795 N.ar    1  UNL1       -0.1083
      9 N          58.6758   87.5965    7.4364 N.ar    1  UNL1       -0.0229
     10 N          59.1842   88.9961    7.2555 N.ar    1  UNL1       -0.0464
     11 N          60.2456   89.2407    8.2867 N.ar    1  UNL1       -0.2388
     12 H          60.7558   90.0743    8.4056 H       1  UNL1        0.1923
     13 C          63.1463   84.6874   13.9524 C.2     1  UNL1        0.3256
     14 O          63.3383   85.8950   14.8213 O.2     1  UNL1       -0.2627
     15 N          62.7346   84.8522   12.5195 N.am    1  UNL1       -0.2750
     16 H          62.6085   84.0596   11.9492 H       1  UNL1        0.1554
     17 C          63.3660   83.3150   14.5165 C.2     1  UNL1        0.3958
     18 O          64.2898   83.1224   15.6825 O.2     1  UNL1       -0.2397
     19 O          62.6618   82.1351   13.9146 O.3     1  UNL1       -0.4423
     20 C          63.3733   81.2626   12.9234 C.3     1  UNL1        0.2089
     21 C          62.8423   81.1263   11.5272 C.3     1  UNL1        0.0475
     22 C          64.5283   82.8880   10.6303 C.3     1  UNL1        0.0001
     23 C          63.5770   81.7553   10.3807 C.3     1  UNL1        0.0038
@<TRIPOS>BOND
     1    22    23    1
     2    23    21    1
     3    21    20    1
     4    20    19    1
     5    19    17    1
     6    17    18    2
     7    17    13    1
     8    13    14    2
     9    13    15   am
    10    15     1    1
    11     1     2   ar
    12     2     3   ar
    13     3     4   ar
    14     4     5   ar
    15     5     7    1
    16     7     8   ar
    17     8     9   ar
    18     9    10   ar
    19    10    11   ar
    20     5     6   ar
    21     6     1   ar
    22    11     7   ar
    23    15    16    1
    24    11    12    1
