@<TRIPOS>MOLECULE
*****
 25 28 0 0 0
SMALL
GASTEIGER

@<TRIPOS>ATOM
      1 C          66.1190   94.0732   11.6619 C.ar    1  UNL1        0.2212
      2 N          65.1258   93.0766   11.1420 N.ar    1  UNL1       -0.1987
      3 C          64.6822   91.9369   12.0103 C.ar    1  UNL1        0.1360
      4 C          65.2318   91.7937   13.3987 C.ar    1  UNL1        0.0575
      5 C          66.2250   92.7902   13.9186 C.ar    1  UNL1        0.1582
      6 N          66.6686   93.9299   13.0502 N.ar    1  UNL1       -0.2096
      7 N          63.6889   90.9403   11.4904 N.pl3   1  UNL1       -0.2931
      8 C          62.9485   91.0301   10.1890 C.3     1  UNL1        0.0922
      9 C          62.0636   89.8242   10.0749 C.3     1  UNL1        0.0219
     10 C          61.3003   88.5436   10.2402 C.3     1  UNL1        0.0089
     11 C          62.2572   88.9891   11.3059 C.3     1  UNL1        0.0219
     12 C          63.2617   89.6789   12.1807 C.3     1  UNL1        0.0922
     13 C          60.3070   87.5470    9.7204 C.3     1  UNL1        0.0418
     14 C          59.5569   87.8274    8.4520 C.2     1  UNL1        0.0503
     15 O          59.7838   89.1141    7.7153 O.co2   1  UNL1       -0.5492
     16 O          58.5797   86.8210    7.9205 O.co2   1  UNL1       -0.5492
     17 C          67.7816   94.3543    8.4571 C.3     1  UNL1        0.0216
     18 C          67.2514   95.3294    9.4660 C.3     1  UNL1        0.0773
     19 C          67.1902   96.8248    9.5654 C.3     1  UNL1        0.0413
     20 C          66.5015   96.7084   10.8929 C.3     1  UNL1        0.0952
     21 N          66.5627   95.2130   10.7935 N.pl3   1  UNL1       -0.2797
     22 C          66.7746   92.6470   15.3069 C.3     1  UNL1        0.4350
     23 F          67.3242   92.5038   16.6952 F       1  UNL1       -0.1644
     24 F          67.8104   93.6888   15.0043 F       1  UNL1       -0.1644
     25 F          65.7388   91.6051   15.6095 F       1  UNL1       -0.1644
@<TRIPOS>UNITY_ATOM_ATTR
15 1
charge -1
@<TRIPOS>BOND
     1    18    17    1
     2    18    19    1
     3    19    20    1
     4    20    21    1
     5    21     1    1
     6     1     2   ar
     7     2     3   ar
     8     3     7    1
     9     7     8    1
    10     9     8    1
    11     9    10    1
    12    10    13    1
    13    13    14    1
    14    14    15   ar
    15    14    16   ar
    16    10    11    1
    17    11    12    1
    18     3     4   ar
    19     4     5   ar
    20     5    22    1
    21    22    23    1
    22    22    24    1
    23    22    25    1
    24     5     6   ar
    25    21    18    1
    26     6     1   ar
    27    12     7    1
    28    11     9    1
@<TRIPOS>MOLECULE
*****
 25 28 0 0 0
SMALL
GASTEIGER

@<TRIPOS>ATOM
      1 C          62.4955   85.3711   11.8643 C.ar    1  UNL1        0.2212
      2 N          63.2054   86.4585   12.6150 N.ar    1  UNL1       -0.1987
      3 C          62.9474   87.8964   12.2746 C.ar    1  UNL1        0.1360
      4 C          61.9797   88.2469   11.1835 C.ar    1  UNL1        0.0575
      5 C          61.2698   87.1595   10.4328 C.ar    1  UNL1        0.1582
      6 N          61.5277   85.7216   10.7732 N.ar    1  UNL1       -0.2096
      7 N          63.6573   88.9839   13.0254 N.pl3   1  UNL1       -0.2931
      8 C          63.8043   90.4096   12.5830 C.3     1  UNL1        0.0922
      9 C          64.5826   91.1433   13.6345 C.3     1  UNL1        0.0219
     10 C          65.3644   91.5989   14.8309 C.3     1  UNL1        0.0089
     11 C          64.9167   90.1711   14.7269 C.3     1  UNL1        0.0219
     12 C          64.3448   88.8365   14.3504 C.3     1  UNL1        0.0922
     13 C          66.0743   92.6863   15.5817 C.3     1  UNL1        0.0418
     14 C          67.4141   93.1704   15.1122 C.2     1  UNL1        0.0503
     15 O          68.2435   94.0551   15.9950 O.co2   1  UNL1       -0.5492
     16 O          67.9246   92.7697   13.7597 O.co2   1  UNL1       -0.5492
     17 C          64.1024   82.5917   10.1891 C.3     1  UNL1        0.0216
     18 C          63.4190   82.7819   11.5107 C.3     1  UNL1        0.0773
     19 C          63.1182   81.8996   12.6859 C.3     1  UNL1        0.0413
     20 C          62.4525   83.0509   13.3798 C.3     1  UNL1        0.0952
     21 N          62.7534   83.9331   12.2046 N.pl3   1  UNL1       -0.2797
     22 C          60.3020   87.5100    9.3416 C.3     1  UNL1        0.4350
     23 F          59.3343   87.8606    8.2505 F       1  UNL1       -0.1644
     24 F          60.2570   86.0714    8.9194 F       1  UNL1       -0.1644
     25 F          60.3471   88.9487    9.7639 F       1  UNL1       -0.1644
@<TRIPOS>UNITY_ATOM_ATTR
15 1
charge -1
@<TRIPOS>BOND
     1    18    17    1
     2    18    19    1
     3    19    20    1
     4    20    21    1
     5    21     1    1
     6     1     2   ar
     7     2     3   ar
     8     3     7    1
     9     7     8    1
    10     9     8    1
    11     9    10    1
    12    10    13    1
    13    13    14    1
    14    14    15   ar
    15    14    16   ar
    16    10    11    1
    17    11    12    1
    18     3     4   ar
    19     4     5   ar
    20     5    22    1
    21    22    23    1
    22    22    24    1
    23    22    25    1
    24     5     6   ar
    25    21    18    1
    26     6     1   ar
    27    12     7    1
    28    11     9    1
@<TRIPOS>MOLECULE
*****
 25 28 0 0 0
SMALL
GASTEIGER

@<TRIPOS>ATOM
      1 C          66.4939   92.8060   13.1973 C.ar    1  UNL1        0.2212
      2 N          65.3913   91.8458   12.8621 N.ar    1  UNL1       -0.1987
      3 C          64.7020   91.9300   11.5326 C.ar    1  UNL1        0.1360
      4 C          65.1151   92.9744   10.5383 C.ar    1  UNL1        0.0575
      5 C          66.2177   93.9345   10.8735 C.ar    1  UNL1        0.1582
      6 N          66.9071   93.8503   12.2030 N.ar    1  UNL1       -0.2096
      7 N          63.5993   90.9698   11.1973 N.pl3   1  UNL1       -0.2931
      8 C          62.7372   91.0108    9.9705 C.3     1  UNL1        0.0922
      9 C          61.7703   89.8664   10.0450 C.3     1  UNL1        0.0219
     10 C          60.9478   88.6607   10.3911 C.3     1  UNL1        0.0089
     11 C          62.0350   89.1181   11.3178 C.3     1  UNL1        0.0219
     12 C          63.1653   89.8001   12.0300 C.3     1  UNL1        0.0922
     13 C          59.8452   87.7005   10.0559 C.3     1  UNL1        0.0418
     14 C          59.8575   86.9727    8.7444 C.2     1  UNL1        0.0503
     15 O          58.5987   86.8620    7.9362 O.co2   1  UNL1       -0.5492
     16 O          61.1286   86.3554    8.2410 O.co2   1  UNL1       -0.5492
     17 C          65.3990   92.4729   16.6330 C.3     1  UNL1        0.0216
     18 C          66.7298   92.5838   15.9499 C.3     1  UNL1        0.0773
     19 C          68.1583   92.6027   16.4071 C.3     1  UNL1        0.0413
     20 C          68.6119   92.7407   14.9840 C.3     1  UNL1        0.0952
     21 N          67.1834   92.7218   14.5268 N.pl3   1  UNL1       -0.2797
     22 C          66.6308   94.9789    9.8792 C.3     1  UNL1        0.4350
     23 F          67.0440   96.0233    8.8849 F       1  UNL1       -0.1644
     24 F          67.9337   94.2653    9.6710 F       1  UNL1       -0.1644
     25 F          65.3280   95.6926   10.0875 F       1  UNL1       -0.1644
@<TRIPOS>UNITY_ATOM_ATTR
15 1
charge -1
@<TRIPOS>BOND
     1    18    17    1
     2    18    19    1
     3    19    20    1
     4    20    21    1
     5    21     1    1
     6     1     2   ar
     7     2     3   ar
     8     3     7    1
     9     7     8    1
    10     9     8    1
    11     9    10    1
    12    10    13    1
    13    13    14    1
    14    14    15   ar
    15    14    16   ar
    16    10    11    1
    17    11    12    1
    18     3     4   ar
    19     4     5   ar
    20     5    22    1
    21    22    23    1
    22    22    24    1
    23    22    25    1
    24     5     6   ar
    25    21    18    1
    26     6     1   ar
    27    12     7    1
    28    11     9    1
@<TRIPOS>MOLECULE
*****
 25 28 0 0 0
SMALL
GASTEIGER

@<TRIPOS>ATOM
      1 C          62.7781   85.2007   12.3551 C.ar    1  UNL1        0.2212
      2 N          62.0043   85.7782   11.2072 N.ar    1  UNL1       -0.1987
      3 C          61.9745   87.2626   10.9941 C.ar    1  UNL1        0.1360
      4 C          62.7186   88.1696   11.9289 C.ar    1  UNL1        0.0575
      5 C          63.4923   87.5921   13.0768 C.ar    1  UNL1        0.1582
      6 N          63.5221   86.1076   13.2899 N.ar    1  UNL1       -0.2096
      7 N          61.2007   87.8402    9.8462 N.pl3   1  UNL1       -0.2931
      8 C          60.9809   89.2993    9.5763 C.3     1  UNL1        0.0922
      9 C          60.1552   89.4209    8.3300 C.3     1  UNL1        0.0219
     10 C          59.3398   89.2291    7.0856 C.3     1  UNL1        0.0089
     11 C          59.8648   88.0370    7.8294 C.3     1  UNL1        0.0219
     12 C          60.5109   87.0601    8.7665 C.3     1  UNL1        0.0922
     13 C          58.5661   89.8066    5.9377 C.3     1  UNL1        0.0418
     14 C          59.0744   91.0269    5.2289 C.2     1  UNL1        0.0503
     15 O          60.5423   91.1829    4.9629 O.co2   1  UNL1       -0.5492
     16 O          58.1147   92.0914    4.7861 O.co2   1  UNL1       -0.5492
     17 C          63.9094   82.3579   10.4179 C.3     1  UNL1        0.0216
     18 C          63.2765   82.5386   11.7658 C.3     1  UNL1        0.0773
     19 C          62.8501   81.6168   12.8695 C.3     1  UNL1        0.0413
     20 C          62.3814   82.7942   13.6719 C.3     1  UNL1        0.0952
     21 N          62.8079   83.7161   12.5682 N.pl3   1  UNL1       -0.2797
     22 C          64.2364   88.4990   14.0116 C.3     1  UNL1        0.4350
     23 F          64.9804   89.4060   14.9464 F       1  UNL1       -0.1644
     24 F          64.5026   87.3393   14.9249 F       1  UNL1       -0.1644
     25 F          63.9701   89.6588   13.0983 F       1  UNL1       -0.1644
@<TRIPOS>UNITY_ATOM_ATTR
15 1
charge -1
@<TRIPOS>BOND
     1    18    17    1
     2    18    19    1
     3    19    20    1
     4    20    21    1
     5    21     1    1
     6     1     2   ar
     7     2     3   ar
     8     3     7    1
     9     7     8    1
    10     9     8    1
    11     9    10    1
    12    10    13    1
    13    13    14    1
    14    14    15   ar
    15    14    16   ar
    16    10    11    1
    17    11    12    1
    18     3     4   ar
    19     4     5   ar
    20     5    22    1
    21    22    23    1
    22    22    24    1
    23    22    25    1
    24     5     6   ar
    25    21    18    1
    26     6     1   ar
    27    12     7    1
    28    11     9    1
@<TRIPOS>MOLECULE
*****
 25 28 0 0 0
SMALL
GASTEIGER

@<TRIPOS>ATOM
      1 C          61.4542   87.4937   10.2852 C.ar    1  UNL1        0.2212
      2 N          62.1838   88.5300   11.0874 N.ar    1  UNL1       -0.1987
      3 C          63.0443   88.1147   12.2436 C.ar    1  UNL1        0.1360
      4 C          63.1754   86.6629   12.5976 C.ar    1  UNL1        0.0575
      5 C          62.4458   85.6265   11.7953 C.ar    1  UNL1        0.1582
      6 N          61.5852   86.0419   10.6391 N.ar    1  UNL1       -0.2096
      7 N          63.7740   89.1510   13.0460 N.pl3   1  UNL1       -0.2931
      8 C          64.0038   90.5774   12.6429 C.3     1  UNL1        0.0922
      9 C          64.7737   91.2509   13.7400 C.3     1  UNL1        0.0219
     10 C          65.5285   91.6432   14.9755 C.3     1  UNL1        0.0089
     11 C          65.0197   90.2406   14.8212 C.3     1  UNL1        0.0219
     12 C          64.4018   88.9429   14.3923 C.3     1  UNL1        0.0922
     13 C          66.2581   92.6795   15.7778 C.3     1  UNL1        0.0418
     14 C          67.5614   93.2318   15.2815 C.2     1  UNL1        0.0503
     15 O          68.0965   92.8064   13.9463 O.co2   1  UNL1       -0.5492
     16 O          68.3297   94.2097   16.1204 O.co2   1  UNL1       -0.5492
     17 C          60.0088   85.7986    7.4301 C.3     1  UNL1        0.0216
     18 C          59.9949   87.2069    7.9463 C.3     1  UNL1        0.0773
     19 C          59.3765   88.4963    7.4937 C.3     1  UNL1        0.0413
     20 C          59.9752   89.1985    8.6763 C.3     1  UNL1        0.0952
     21 N          60.5936   87.9090    9.1289 N.pl3   1  UNL1       -0.2797
     22 C          62.5768   84.1748   12.1492 C.3     1  UNL1        0.4350
     23 F          62.7079   82.7231   12.5032 F       1  UNL1       -0.1644
     24 F          62.8740   83.8519   10.7149 F       1  UNL1       -0.1644
     25 F          62.2796   84.4977   13.5836 F       1  UNL1       -0.1644
@<TRIPOS>UNITY_ATOM_ATTR
15 1
charge -1
@<TRIPOS>BOND
     1    18    17    1
     2    18    19    1
     3    19    20    1
     4    20    21    1
     5    21     1    1
     6     1     2   ar
     7     2     3   ar
     8     3     7    1
     9     7     8    1
    10     9     8    1
    11     9    10    1
    12    10    13    1
    13    13    14    1
    14    14    15   ar
    15    14    16   ar
    16    10    11    1
    17    11    12    1
    18     3     4   ar
    19     4     5   ar
    20     5    22    1
    21    22    23    1
    22    22    24    1
    23    22    25    1
    24     5     6   ar
    25    21    18    1
    26     6     1   ar
    27    12     7    1
    28    11     9    1
@<TRIPOS>MOLECULE
*****
 25 28 0 0 0
SMALL
GASTEIGER

@<TRIPOS>ATOM
      1 C          63.6798   89.9155   12.8044 C.ar    1  UNL1        0.2212
      2 N          63.8190   88.4448   13.0644 N.ar    1  UNL1       -0.1987
      3 C          62.9242   87.4703   12.3577 C.ar    1  UNL1        0.1360
      4 C          61.8901   87.9664   11.3910 C.ar    1  UNL1        0.0575
      5 C          61.7508   89.4371   11.1310 C.ar    1  UNL1        0.1582
      6 N          62.6457   90.4117   11.8377 N.ar    1  UNL1       -0.2096
      7 N          63.0634   85.9995   12.6177 N.pl3   1  UNL1       -0.2931
      8 C          62.4573   84.8982   11.7992 C.3     1  UNL1        0.0922
      9 C          62.8525   83.5900   12.4175 C.3     1  UNL1        0.0219
     10 C          63.3983   82.4626   13.2430 C.3     1  UNL1        0.0089
     11 C          63.7028   83.8827   13.6181 C.3     1  UNL1        0.0219
     12 C          63.8332   85.3719   13.7417 C.3     1  UNL1        0.0922
     13 C          63.5375   80.9919   13.5030 C.3     1  UNL1        0.0418
     14 C          62.4620   80.0463   13.0569 C.2     1  UNL1        0.0503
     15 O          61.2247   79.8724   13.8869 O.co2   1  UNL1       -0.5492
     16 O          62.6238   79.2746   11.7808 O.co2   1  UNL1       -0.5492
     17 C          65.6641   92.7699   11.7902 C.3     1  UNL1        0.0216
     18 C          65.3966   92.0725   13.0909 C.3     1  UNL1        0.0773
     19 C          65.8402   92.2685   14.5104 C.3     1  UNL1        0.0413
     20 C          65.0183   91.0862   14.9305 C.3     1  UNL1        0.0952
     21 N          64.5747   90.8902   13.5111 N.pl3   1  UNL1       -0.2797
     22 C          60.7167   89.9333   10.1643 C.3     1  UNL1        0.4350
     23 F          59.6826   90.4294    9.1976 F       1  UNL1       -0.1644
     24 F          60.1805   90.8609   11.2141 F       1  UNL1       -0.1644
     25 F          61.2529   89.0056    9.1146 F       1  UNL1       -0.1644
@<TRIPOS>UNITY_ATOM_ATTR
15 1
charge -1
@<TRIPOS>BOND
     1    18    17    1
     2    18    19    1
     3    19    20    1
     4    20    21    1
     5    21     1    1
     6     1     2   ar
     7     2     3   ar
     8     3     7    1
     9     7     8    1
    10     9     8    1
    11     9    10    1
    12    10    13    1
    13    13    14    1
    14    14    15   ar
    15    14    16   ar
    16    10    11    1
    17    11    12    1
    18     3     4   ar
    19     4     5   ar
    20     5    22    1
    21    22    23    1
    22    22    24    1
    23    22    25    1
    24     5     6   ar
    25    21    18    1
    26     6     1   ar
    27    12     7    1
    28    11     9    1
@<TRIPOS>MOLECULE
*****
 25 28 0 0 0
SMALL
GASTEIGER

@<TRIPOS>ATOM
      1 C          64.7469   90.6143   13.9855 C.ar    1  UNL1        0.2212
      2 N          64.5581   89.1544   14.2735 N.ar    1  UNL1       -0.1987
      3 C          63.8370   88.2828   13.2884 C.ar    1  UNL1        0.1360
      4 C          63.3046   88.8712   12.0155 C.ar    1  UNL1        0.0575
      5 C          63.4934   90.3311   11.7276 C.ar    1  UNL1        0.1582
      6 N          64.2145   91.2027   12.7126 N.ar    1  UNL1       -0.2096
      7 N          63.6481   86.8228   13.5763 N.pl3   1  UNL1       -0.2931
      8 C          64.1384   86.0932   14.7918 C.3     1  UNL1        0.0922
      9 C          63.7292   84.6557   14.6659 C.3     1  UNL1        0.0219
     10 C          63.1940   83.3118   14.2686 C.3     1  UNL1        0.0089
     11 C          62.9859   84.4967   13.3727 C.3     1  UNL1        0.0219
     12 C          62.9359   85.8362   12.6993 C.3     1  UNL1        0.0922
     13 C          63.0052   81.8519   14.5564 C.3     1  UNL1        0.0418
     14 C          62.0863   81.0314   13.7006 C.2     1  UNL1        0.0503
     15 O          62.6028   80.3887   12.4476 O.co2   1  UNL1       -0.5492
     16 O          60.6507   80.8537   14.0978 O.co2   1  UNL1       -0.5492
     17 C          68.0796   92.0135   14.2069 C.3     1  UNL1        0.0216
     18 C          66.8485   92.0655   15.0622 C.3     1  UNL1        0.0773
     19 C          66.4880   92.7186   16.3636 C.3     1  UNL1        0.0413
     20 C          65.1075   92.1390   16.2719 C.3     1  UNL1        0.0952
     21 N          65.4681   91.4859   14.9706 N.pl3   1  UNL1       -0.2797
     22 C          62.9610   90.9195   10.4546 C.3     1  UNL1        0.4350
     23 F          62.4287   91.5079    9.1816 F       1  UNL1       -0.1644
     24 F          64.0634   91.9367   10.4637 F       1  UNL1       -0.1644
     25 F          61.8587   89.9023   10.4455 F       1  UNL1       -0.1644
@<TRIPOS>UNITY_ATOM_ATTR
15 1
charge -1
@<TRIPOS>BOND
     1    18    17    1
     2    18    19    1
     3    19    20    1
     4    20    21    1
     5    21     1    1
     6     1     2   ar
     7     2     3   ar
     8     3     7    1
     9     7     8    1
    10     9     8    1
    11     9    10    1
    12    10    13    1
    13    13    14    1
    14    14    15   ar
    15    14    16   ar
    16    10    11    1
    17    11    12    1
    18     3     4   ar
    19     4     5   ar
    20     5    22    1
    21    22    23    1
    22    22    24    1
    23    22    25    1
    24     5     6   ar
    25    21    18    1
    26     6     1   ar
    27    12     7    1
    28    11     9    1
@<TRIPOS>MOLECULE
*****
 25 28 0 0 0
SMALL
GASTEIGER

@<TRIPOS>ATOM
      1 C          62.6288   89.4877   10.7546 C.ar    1  UNL1        0.2212
      2 N          62.9228   88.1305   11.3217 N.ar    1  UNL1       -0.1987
      3 C          62.1416   86.9378   10.8559 C.ar    1  UNL1        0.1360
      4 C          61.0664   87.1022    9.8230 C.ar    1  UNL1        0.0575
      5 C          60.7723   88.4593    9.2559 C.ar    1  UNL1        0.1582
      6 N          61.5536   89.6521    9.7217 N.ar    1  UNL1       -0.2096
      7 N          62.4356   85.5805   11.4230 N.pl3   1  UNL1       -0.2931
      8 C          62.4625   85.2202   12.8788 C.3     1  UNL1        0.0922
      9 C          62.7978   83.7623   12.9894 C.3     1  UNL1        0.0219
     10 C          63.1426   82.3166   12.7867 C.3     1  UNL1        0.0089
     11 C          62.9782   83.2217   11.6019 C.3     1  UNL1        0.0219
     12 C          62.7543   84.3454   10.6338 C.3     1  UNL1        0.0922
     13 C          63.4366   80.9594   13.3537 C.3     1  UNL1        0.0418
     14 C          62.3122   80.0773   13.8094 C.2     1  UNL1        0.0503
     15 O          62.5455   78.6097   14.0131 O.co2   1  UNL1       -0.5492
     16 O          60.9544   80.6630   14.0615 O.co2   1  UNL1       -0.5492
     17 C          63.7871   90.6950   13.9662 C.3     1  UNL1        0.0216
     18 C          63.8898   91.1806   12.5507 C.3     1  UNL1        0.0773
     19 C          64.5148   92.3674   11.8792 C.3     1  UNL1        0.0413
     20 C          64.0350   91.8673   10.5489 C.3     1  UNL1        0.0952
     21 N          63.4100   90.6805   11.2204 N.pl3   1  UNL1       -0.2797
     22 C          59.6971   88.6237    8.2230 C.3     1  UNL1        0.4350
     23 F          58.6219   88.7881    7.1901 F       1  UNL1       -0.1644
     24 F          59.0817   87.3265    8.6572 F       1  UNL1       -0.1644
     25 F          60.3125   89.9210    7.7889 F       1  UNL1       -0.1644
@<TRIPOS>UNITY_ATOM_ATTR
15 1
charge -1
@<TRIPOS>BOND
     1    18    17    1
     2    18    19    1
     3    19    20    1
     4    20    21    1
     5    21     1    1
     6     1     2   ar
     7     2     3   ar
     8     3     7    1
     9     7     8    1
    10     9     8    1
    11     9    10    1
    12    10    13    1
    13    13    14    1
    14    14    15   ar
    15    14    16   ar
    16    10    11    1
    17    11    12    1
    18     3     4   ar
    19     4     5   ar
    20     5    22    1
    21    22    23    1
    22    22    24    1
    23    22    25    1
    24     5     6   ar
    25    21    18    1
    26     6     1   ar
    27    12     7    1
    28    11     9    1
