@<TRIPOS>MOLECULE
*****
 38 40 0 0 0
SMALL
GASTEIGER

@<TRIPOS>ATOM
      1 C          63.4929   90.1349   16.0905 C.3     1  UNL1        0.0216
      2 C          63.6854   89.4511   14.7694 C.3     1  UNL1        0.0760
      3 N          64.1224   88.0169   14.7238 N.am    1  UNL1       -0.3044
      4 C          63.5726   87.0336   15.7142 C.2     1  UNL1        0.2382
      5 O          62.5859   87.4844   16.7501 O.2     1  UNL1       -0.2734
      6 H          64.7700   87.7210   14.0439 H       1  UNL1        0.1494
      7 C          64.0096   85.5993   15.6686 C.3     1  UNL1        0.1247
      8 C          62.7583   85.1951   16.3901 C.3     1  UNL1        0.0290
      9 C          65.2610   86.0035   14.9470 C.3     1  UNL1        0.0290
     10 N          64.4466   84.1651   15.6230 N.pl3   1  UNL1       -0.3139
     11 H          64.9527   83.7806   16.3748 H       1  UNL1        0.1485
     12 C          64.1124   83.3167   14.4318 C.ar    1  UNL1        0.1287
     13 C          64.3356   83.8474   13.0468 C.ar    1  UNL1        0.0341
     14 C          64.0015   82.9990   11.8557 C.ar    1  UNL1        0.0083
     15 C          63.4442   81.6200   12.0498 C.ar    1  UNL1        0.0906
     16 C          63.2210   81.0893   13.4349 C.ar    1  UNL1        0.1041
     17 N          63.5551   81.9377   14.6259 N.ar    1  UNL1       -0.2294
     18 C          63.1100   80.7716   10.8587 C.3     1  UNL1        0.4200
     19 F          62.7759   79.9233    9.6676 F       1  UNL1       -0.1658
     20 F          62.6695   79.6650   11.7704 F       1  UNL1       -0.1658
     21 F          63.5505   81.8782    9.9470 F       1  UNL1       -0.1658
     22 C          63.4410   90.2015   13.4938 C.3     1  UNL1        0.0446
     23 C          64.5069   91.0962   12.9339 C.ar    1  UNL1       -0.0199
     24 C          64.3440   91.6924   11.5672 C.ar    1  UNL1       -0.0042
     25 C          65.4098   92.5870   11.0072 C.ar    1  UNL1        0.0004
     26 C          66.6386   92.8855   11.8141 C.ar    1  UNL1        0.0103
     27 C          66.8015   92.2893   13.1808 C.ar    1  UNL1        0.0681
     28 C          65.7357   91.3947   13.7408 C.ar    1  UNL1        0.0061
     29 C          68.0303   92.5878   13.9877 C.1     1  UNL1        0.1004
     30 N          69.2591   92.8862   14.7945 N.1     1  UNL1       -0.1908
     31 C          62.1306   90.0573   12.7781 C.3     1  UNL1        0.0323
     32 C          61.9884   89.0586   11.6679 C.ar    1  UNL1       -0.0218
     33 C          61.2978   89.4466   10.3941 C.ar    1  UNL1       -0.0034
     34 C          61.1556   88.4480    9.2839 C.ar    1  UNL1        0.0111
     35 C          61.7038   87.0614    9.4476 C.ar    1  UNL1        0.0577
     36 CL         61.5616   86.0627    8.3374 Cl      1  UNL1       -0.0822
     37 C          62.3944   86.6735   10.7214 C.ar    1  UNL1        0.0111
     38 C          62.5366   87.6721   11.8316 C.ar    1  UNL1       -0.0034
@<TRIPOS>BOND
     1     2     1    1
     2     2     3    1
     3     3     4   am
     4     4     5    2
     5     4     7    1
     6     7     8    1
     7     7     9    1
     8     7    10    1
     9    10    12    1
    10    12    13   ar
    11    13    14   ar
    12    14    15   ar
    13    15    18    1
    14    18    19    1
    15    18    20    1
    16    18    21    1
    17    15    16   ar
    18    16    17   ar
    19     2    22    1
    20    22    31    1
    21    31    32    1
    22    32    33   ar
    23    33    34   ar
    24    34    35   ar
    25    35    36    1
    26    35    37   ar
    27    37    38   ar
    28    22    23    1
    29    23    24   ar
    30    24    25   ar
    31    25    26   ar
    32    26    27   ar
    33    27    29    1
    34    29    30    3
    35    27    28   ar
    36    17    12   ar
    37    38    32   ar
    38    28    23   ar
    39     3     6    1
    40    10    11    1
@<TRIPOS>MOLECULE
*****
 38 40 0 0 0
SMALL
GASTEIGER

@<TRIPOS>ATOM
      1 C          63.0104   90.0535   16.3464 C.3     1  UNL1        0.0216
      2 C          63.6021   89.5463   15.0648 C.3     1  UNL1        0.0760
      3 N          64.0831   88.1286   14.9701 N.am    1  UNL1       -0.3044
      4 C          63.4859   87.0735   15.8533 C.2     1  UNL1        0.2382
      5 O          62.4078   87.4360   16.8312 O.2     1  UNL1       -0.2734
      6 H          64.7907   87.8907   14.3283 H       1  UNL1        0.1494
      7 C          63.9669   85.6558   15.7586 C.3     1  UNL1        0.1247
      8 C          62.7056   85.1838   16.4192 C.3     1  UNL1        0.0290
      9 C          65.2282   86.1278   15.0981 C.3     1  UNL1        0.0290
     10 N          64.4479   84.2382   15.6640 N.pl3   1  UNL1       -0.3139
     11 H          64.9847   83.8508   16.3927 H       1  UNL1        0.1485
     12 C          64.1108   83.4107   14.4591 C.ar    1  UNL1        0.1287
     13 C          64.5372   83.8644   13.0945 C.ar    1  UNL1        0.0341
     14 C          64.2002   83.0369   11.8897 C.ar    1  UNL1        0.0083
     15 C          63.4367   81.7557   12.0495 C.ar    1  UNL1        0.0906
     16 C          63.0103   81.3020   13.4141 C.ar    1  UNL1        0.1041
     17 N          63.3473   82.1295   14.6189 N.ar    1  UNL1       -0.2294
     18 C          63.0996   80.9282   10.8446 C.3     1  UNL1        0.4200
     19 F          62.7626   80.1007    9.6398 F       1  UNL1       -0.1658
     20 F          63.5435   82.0483    9.9511 F       1  UNL1       -0.1658
     21 F          62.6558   79.8081   11.7381 F       1  UNL1       -0.1658
     22 C          63.7129   90.4566   13.8778 C.3     1  UNL1        0.0446
     23 C          65.0146   91.1370   13.5732 C.ar    1  UNL1       -0.0199
     24 C          66.1454   91.0670   14.5563 C.ar    1  UNL1       -0.0042
     25 C          67.4471   91.7474   14.2519 C.ar    1  UNL1        0.0004
     26 C          67.6180   92.4976   12.9643 C.ar    1  UNL1        0.0103
     27 C          66.4872   92.5676   11.9812 C.ar    1  UNL1        0.0681
     28 C          65.1855   91.8872   12.2857 C.ar    1  UNL1        0.0061
     29 C          66.6582   93.3179   10.6936 C.1     1  UNL1        0.1004
     30 N          66.8291   94.0682    9.4061 N.1     1  UNL1       -0.1908
     31 C          62.5220   90.6866   12.9953 C.3     1  UNL1        0.0323
     32 C          62.0162   89.5822   12.1151 C.ar    1  UNL1       -0.0218
     33 C          62.9509   88.5038   11.6530 C.ar    1  UNL1       -0.0034
     34 C          62.4452   87.3994   10.7729 C.ar    1  UNL1        0.0111
     35 C          61.0049   87.3734   10.3550 C.ar    1  UNL1        0.0577
     36 CL         60.4991   86.2690    9.4749 Cl      1  UNL1       -0.0822
     37 C          60.0702   88.4518   10.8171 C.ar    1  UNL1        0.0111
     38 C          60.5759   89.5562   11.6972 C.ar    1  UNL1       -0.0034
@<TRIPOS>BOND
     1     2     1    1
     2     2     3    1
     3     3     4   am
     4     4     5    2
     5     4     7    1
     6     7     8    1
     7     7     9    1
     8     7    10    1
     9    10    12    1
    10    12    13   ar
    11    13    14   ar
    12    14    15   ar
    13    15    18    1
    14    18    19    1
    15    18    20    1
    16    18    21    1
    17    15    16   ar
    18    16    17   ar
    19     2    22    1
    20    22    31    1
    21    31    32    1
    22    32    33   ar
    23    33    34   ar
    24    34    35   ar
    25    35    36    1
    26    35    37   ar
    27    37    38   ar
    28    22    23    1
    29    23    24   ar
    30    24    25   ar
    31    25    26   ar
    32    26    27   ar
    33    27    29    1
    34    29    30    3
    35    27    28   ar
    36    17    12   ar
    37    38    32   ar
    38    28    23   ar
    39     3     6    1
    40    10    11    1
@<TRIPOS>MOLECULE
*****
 38 40 0 0 0
SMALL
GASTEIGER

@<TRIPOS>ATOM
      1 C          63.7155   90.6713   16.1061 C.3     1  UNL1        0.0216
      2 C          63.9863   89.9171   14.8381 C.3     1  UNL1        0.0760
      3 N          64.2847   88.4480   14.8884 N.am    1  UNL1       -0.3044
      4 C          63.5379   87.5632   15.8421 C.2     1  UNL1        0.2382
      5 O          62.4927   88.1475   16.7454 O.2     1  UNL1       -0.2734
      6 H          64.9707   88.0644   14.2955 H       1  UNL1        0.1494
      7 C          63.8363   86.0940   15.8923 C.3     1  UNL1        0.1247
      8 C          64.9343   86.2827   14.8880 C.3     1  UNL1        0.0290
      9 C          62.7384   85.9053   16.8967 C.3     1  UNL1        0.0290
     10 N          64.1348   84.6249   15.9426 N.pl3   1  UNL1       -0.3139
     11 H          64.5003   84.2246   16.7645 H       1  UNL1        0.1485
     12 C          63.8764   83.7655   14.7406 C.ar    1  UNL1        0.1287
     13 C          62.6330   82.9296   14.6696 C.ar    1  UNL1        0.0341
     14 C          62.3746   82.0702   13.4676 C.ar    1  UNL1        0.0083
     15 C          63.3597   82.0468   12.3366 C.ar    1  UNL1        0.0906
     16 C          64.6031   82.8827   12.4076 C.ar    1  UNL1        0.1041
     17 N          64.8615   83.7421   13.6096 N.ar    1  UNL1       -0.2294
     18 C          63.1013   81.1874   11.1346 C.3     1  UNL1        0.4200
     19 F          62.8429   80.3281    9.9327 F       1  UNL1       -0.1658
     20 F          63.6152   82.2792   10.2436 F       1  UNL1       -0.1658
     21 F          62.5875   80.0957   12.0257 F       1  UNL1       -0.1658
     22 C          63.9588   90.6320   13.5198 C.3     1  UNL1        0.0446
     23 C          63.2491   90.0192   12.3489 C.ar    1  UNL1       -0.0199
     24 C          62.7017   90.8953   11.2613 C.ar    1  UNL1       -0.0042
     25 C          61.9921   90.2825   10.0905 C.ar    1  UNL1        0.0004
     26 C          61.8299   88.7937   10.0072 C.ar    1  UNL1        0.0103
     27 C          62.3774   87.9176   11.0947 C.ar    1  UNL1        0.0681
     28 C          63.0870   88.5304   12.2655 C.ar    1  UNL1        0.0061
     29 C          62.2152   86.4287   11.0113 C.1     1  UNL1        0.1004
     30 N          62.0531   84.9398   10.9279 N.1     1  UNL1       -0.1908
     31 C          64.6408   91.9598   13.3722 C.3     1  UNL1        0.0323
     32 C          65.7447   92.1288   12.3707 C.ar    1  UNL1       -0.0218
     33 C          65.4533   92.7297   11.0276 C.ar    1  UNL1       -0.0034
     34 C          66.5571   92.8987   10.0261 C.ar    1  UNL1        0.0111
     35 C          67.9523   92.4667   10.3677 C.ar    1  UNL1        0.0577
     36 CL         69.0562   92.6357    9.3662 Cl      1  UNL1       -0.0822
     37 C          68.2437   91.8658   11.7108 C.ar    1  UNL1        0.0111
     38 C          67.1399   91.6968   12.7123 C.ar    1  UNL1       -0.0034
@<TRIPOS>BOND
     1     2     1    1
     2     2     3    1
     3     3     4   am
     4     4     5    2
     5     4     7    1
     6     7     8    1
     7     7     9    1
     8     7    10    1
     9    10    12    1
    10    12    13   ar
    11    13    14   ar
    12    14    15   ar
    13    15    18    1
    14    18    19    1
    15    18    20    1
    16    18    21    1
    17    15    16   ar
    18    16    17   ar
    19     2    22    1
    20    22    31    1
    21    31    32    1
    22    32    33   ar
    23    33    34   ar
    24    34    35   ar
    25    35    36    1
    26    35    37   ar
    27    37    38   ar
    28    22    23    1
    29    23    24   ar
    30    24    25   ar
    31    25    26   ar
    32    26    27   ar
    33    27    29    1
    34    29    30    3
    35    27    28   ar
    36    17    12   ar
    37    38    32   ar
    38    28    23   ar
    39     3     6    1
    40    10    11    1
@<TRIPOS>MOLECULE
*****
 38 40 0 0 0
SMALL
GASTEIGER

@<TRIPOS>ATOM
      1 C          63.5026   90.3823   16.1296 C.3     1  UNL1        0.0216
      2 C          63.8803   89.6940   14.8515 C.3     1  UNL1        0.0760
      3 N          64.2549   88.2416   14.8641 N.am    1  UNL1       -0.3044
      4 C          63.5570   87.2951   15.7953 C.2     1  UNL1        0.2382
      5 O          62.4845   87.8010   16.7138 O.2     1  UNL1       -0.2734
      6 H          64.9589   87.9096   14.2613 H       1  UNL1        0.1494
      7 C          63.9317   85.8427   15.8079 C.3     1  UNL1        0.1247
      8 C          62.7814   85.5539   16.7263 C.3     1  UNL1        0.0290
      9 C          65.0820   86.1314   14.8896 C.3     1  UNL1        0.0290
     10 N          64.3064   84.3903   15.8206 N.pl3   1  UNL1       -0.3139
     11 H          64.7501   84.0032   16.6096 H       1  UNL1        0.1485
     12 C          64.0050   83.5276   14.6310 C.ar    1  UNL1        0.1287
     13 C          64.7185   83.7642   13.3329 C.ar    1  UNL1        0.0341
     14 C          64.4171   82.9015   12.1435 C.ar    1  UNL1        0.0083
     15 C          63.4023   81.8022   12.2521 C.ar    1  UNL1        0.0906
     16 C          62.6889   81.5656   13.5501 C.ar    1  UNL1        0.1041
     17 N          62.9903   82.4283   14.7396 N.ar    1  UNL1       -0.2294
     18 C          63.1010   80.9395   11.0625 C.3     1  UNL1        0.4200
     19 F          62.7997   80.0768    9.8730 F       1  UNL1       -0.1658
     20 F          63.5783   82.0304   10.1503 F       1  UNL1       -0.1658
     21 F          62.6237   79.8486   11.9746 F       1  UNL1       -0.1658
     22 C          63.8832   90.4580   13.5607 C.3     1  UNL1        0.0446
     23 C          63.2222   89.8792   12.3449 C.ar    1  UNL1       -0.0199
     24 C          62.7389   90.7848   11.2512 C.ar    1  UNL1       -0.0042
     25 C          62.0778   90.2060   10.0355 C.ar    1  UNL1        0.0004
     26 C          61.9000   88.7216    9.9135 C.ar    1  UNL1        0.0103
     27 C          62.3833   87.8160   11.0073 C.ar    1  UNL1        0.0681
     28 C          63.0444   88.3948   12.2230 C.ar    1  UNL1        0.0061
     29 C          62.2055   86.3315   10.8853 C.1     1  UNL1        0.1004
     30 N          62.0277   84.8472   10.7632 N.1     1  UNL1       -0.1908
     31 C          64.5473   91.8009   13.4856 C.3     1  UNL1        0.0323
     32 C          65.8525   92.0326   14.1878 C.ar    1  UNL1       -0.0218
     33 C          67.1453   91.7805   13.4701 C.ar    1  UNL1       -0.0034
     34 C          68.4504   92.0122   14.1722 C.ar    1  UNL1        0.0111
     35 C          68.4627   92.4958   15.5920 C.ar    1  UNL1        0.0577
     36 CL         69.7678   92.7274   16.2942 Cl      1  UNL1       -0.0822
     37 C          67.1698   92.7478   16.3097 C.ar    1  UNL1        0.0111
     38 C          65.8647   92.5162   15.6076 C.ar    1  UNL1       -0.0034
@<TRIPOS>BOND
     1     2     1    1
     2     2     3    1
     3     3     4   am
     4     4     5    2
     5     4     7    1
     6     7     8    1
     7     7     9    1
     8     7    10    1
     9    10    12    1
    10    12    13   ar
    11    13    14   ar
    12    14    15   ar
    13    15    18    1
    14    18    19    1
    15    18    20    1
    16    18    21    1
    17    15    16   ar
    18    16    17   ar
    19     2    22    1
    20    22    31    1
    21    31    32    1
    22    32    33   ar
    23    33    34   ar
    24    34    35   ar
    25    35    36    1
    26    35    37   ar
    27    37    38   ar
    28    22    23    1
    29    23    24   ar
    30    24    25   ar
    31    25    26   ar
    32    26    27   ar
    33    27    29    1
    34    29    30    3
    35    27    28   ar
    36    17    12   ar
    37    38    32   ar
    38    28    23   ar
    39     3     6    1
    40    10    11    1
@<TRIPOS>MOLECULE
*****
 38 40 0 0 0
SMALL
GASTEIGER

@<TRIPOS>ATOM
      1 C          60.3881   89.3561   12.1926 C.3     1  UNL1        0.0216
      2 C          61.7796   89.0561   11.7194 C.3     1  UNL1        0.0760
      3 N          62.8643   90.0791   11.8832 N.am    1  UNL1       -0.3044
      4 C          63.6568   90.1347   13.1556 C.2     1  UNL1        0.2382
      5 O          63.3645   89.1674   14.2641 O.2     1  UNL1       -0.2734
      6 H          63.0561   90.7140   11.1557 H       1  UNL1        0.1494
      7 C          64.7415   91.1577   13.3194 C.3     1  UNL1        0.1247
      8 C          65.2437   90.4311   14.5317 C.3     1  UNL1        0.0290
      9 C          64.2394   91.8844   12.1071 C.3     1  UNL1        0.0290
     10 N          65.8263   92.1807   13.4833 N.pl3   1  UNL1       -0.3139
     11 H          66.2788   92.2835   14.3515 H       1  UNL1        0.1485
     12 C          66.2216   93.0470   12.3242 C.ar    1  UNL1        0.1287
     13 C          66.8556   92.4334   11.1112 C.ar    1  UNL1        0.0341
     14 C          67.2508   93.2997    9.9522 C.ar    1  UNL1        0.0083
     15 C          67.0120   94.7796   10.0062 C.ar    1  UNL1        0.0906
     16 C          66.3780   95.3931   11.2193 C.ar    1  UNL1        0.1041
     17 N          65.9827   94.5268   12.3782 N.ar    1  UNL1       -0.2294
     18 C          67.4073   95.6459    8.8472 C.3     1  UNL1        0.4200
     19 F          67.8026   96.5121    7.6882 F       1  UNL1       -0.1658
     20 F          67.3450   94.4557    7.9364 F       1  UNL1       -0.1658
     21 F          67.4696   96.8360    9.7580 F       1  UNL1       -0.1658
     22 C          62.0863   87.7333   11.0823 C.3     1  UNL1        0.0446
     23 C          61.2668   87.2517    9.9219 C.ar    1  UNL1       -0.0199
     24 C          59.8296   87.6627    9.7967 C.ar    1  UNL1       -0.0042
     25 C          59.0101   87.1811    8.6363 C.ar    1  UNL1        0.0004
     26 C          59.6278   86.2885    7.6011 C.ar    1  UNL1        0.0103
     27 C          61.0649   85.8775    7.7263 C.ar    1  UNL1        0.0681
     28 C          61.8844   86.3590    8.8867 C.ar    1  UNL1        0.0061
     29 C          61.6826   84.9848    6.6910 C.1     1  UNL1        0.1004
     30 N          62.3001   84.0922    5.6558 N.1     1  UNL1       -0.1908
     31 C          63.2125   86.8920   11.6056 C.3     1  UNL1        0.0323
     32 C          62.9260   85.5549   12.2224 C.ar    1  UNL1       -0.0218
     33 C          62.7983   84.3396   11.3525 C.ar    1  UNL1       -0.0034
     34 C          62.5118   83.0026   11.9692 C.ar    1  UNL1        0.0111
     35 C          62.3530   82.8810   13.4558 C.ar    1  UNL1        0.0577
     36 CL         62.0666   81.5439   14.0726 Cl      1  UNL1       -0.0822
     37 C          62.4807   84.0963   14.3257 C.ar    1  UNL1        0.0111
     38 C          62.7672   85.4333   13.7090 C.ar    1  UNL1       -0.0034
@<TRIPOS>BOND
     1     2     1    1
     2     2     3    1
     3     3     4   am
     4     4     5    2
     5     4     7    1
     6     7     8    1
     7     7     9    1
     8     7    10    1
     9    10    12    1
    10    12    13   ar
    11    13    14   ar
    12    14    15   ar
    13    15    18    1
    14    18    19    1
    15    18    20    1
    16    18    21    1
    17    15    16   ar
    18    16    17   ar
    19     2    22    1
    20    22    31    1
    21    31    32    1
    22    32    33   ar
    23    33    34   ar
    24    34    35   ar
    25    35    36    1
    26    35    37   ar
    27    37    38   ar
    28    22    23    1
    29    23    24   ar
    30    24    25   ar
    31    25    26   ar
    32    26    27   ar
    33    27    29    1
    34    29    30    3
    35    27    28   ar
    36    17    12   ar
    37    38    32   ar
    38    28    23   ar
    39     3     6    1
    40    10    11    1
@<TRIPOS>MOLECULE
*****
 38 40 0 0 0
SMALL
GASTEIGER

@<TRIPOS>ATOM
      1 C          60.0876   89.2400   12.1220 C.3     1  UNL1        0.0216
      2 C          61.3942   89.2273   11.3853 C.3     1  UNL1        0.0760
      3 N          62.4224   90.2834   11.6636 N.am    1  UNL1       -0.3044
      4 C          63.4267   90.0820   12.7594 C.2     1  UNL1        0.2382
      5 O          63.4029   88.8247   13.5769 O.2     1  UNL1       -0.2734
      6 H          62.4380   91.1087   11.1270 H       1  UNL1        0.1494
      7 C          64.4549   91.1382   13.0376 C.3     1  UNL1        0.1247
      8 C          64.9063   90.3793   14.2502 C.3     1  UNL1        0.0290
      9 C          64.0036   91.8971   11.8251 C.3     1  UNL1        0.0290
     10 N          65.4831   92.1943   13.3159 N.pl3   1  UNL1       -0.3139
     11 H          65.8297   92.3153   14.2294 H       1  UNL1        0.1485
     12 C          65.9834   93.0660   12.2024 C.ar    1  UNL1        0.1287
     13 C          66.5550   92.4447   10.9625 C.ar    1  UNL1        0.0341
     14 C          67.0552   93.3164    9.8490 C.ar    1  UNL1        0.0083
     15 C          66.9838   94.8094    9.9754 C.ar    1  UNL1        0.0906
     16 C          66.4122   95.4306   11.2152 C.ar    1  UNL1        0.1041
     17 N          65.9120   94.5589   12.3287 N.ar    1  UNL1       -0.2294
     18 C          67.4840   95.6811    8.8618 C.3     1  UNL1        0.4200
     19 F          67.9842   96.5527    7.7483 F       1  UNL1       -0.1658
     20 F          67.5253   96.8527    9.7975 F       1  UNL1       -0.1658
     21 F          67.4427   94.5094    7.9262 F       1  UNL1       -0.1658
     22 C          61.6726   88.1585   10.3703 C.3     1  UNL1        0.0446
     23 C          60.7161   87.9330    9.2370 C.ar    1  UNL1       -0.0199
     24 C          60.1423   86.5674    9.0003 C.ar    1  UNL1       -0.0042
     25 C          59.1859   86.3419    7.8671 C.ar    1  UNL1        0.0004
     26 C          58.8033   87.4819    6.9705 C.ar    1  UNL1        0.0103
     27 C          59.3771   88.8475    7.2071 C.ar    1  UNL1        0.0681
     28 C          60.3335   89.0730    8.3404 C.ar    1  UNL1        0.0061
     29 C          58.9944   89.9875    6.3105 C.1     1  UNL1        0.1004
     30 N          58.6117   91.1275    5.4138 N.1     1  UNL1       -0.1908
     31 C          62.9074   87.3152   10.4887 C.3     1  UNL1        0.0323
     32 C          62.8166   85.9268   11.0492 C.ar    1  UNL1       -0.0218
     33 C          63.0386   84.7417   10.1568 C.ar    1  UNL1       -0.0034
     34 C          62.9477   83.3534   10.7173 C.ar    1  UNL1        0.0111
     35 C          62.6349   83.1501   12.1701 C.ar    1  UNL1        0.0577
     36 CL         62.5441   81.7617   12.7307 Cl      1  UNL1       -0.0822
     37 C          62.4129   84.3352   13.0625 C.ar    1  UNL1        0.0111
     38 C          62.5037   85.7235   12.5020 C.ar    1  UNL1       -0.0034
@<TRIPOS>BOND
     1     2     1    1
     2     2     3    1
     3     3     4   am
     4     4     5    2
     5     4     7    1
     6     7     8    1
     7     7     9    1
     8     7    10    1
     9    10    12    1
    10    12    13   ar
    11    13    14   ar
    12    14    15   ar
    13    15    18    1
    14    18    19    1
    15    18    20    1
    16    18    21    1
    17    15    16   ar
    18    16    17   ar
    19     2    22    1
    20    22    31    1
    21    31    32    1
    22    32    33   ar
    23    33    34   ar
    24    34    35   ar
    25    35    36    1
    26    35    37   ar
    27    37    38   ar
    28    22    23    1
    29    23    24   ar
    30    24    25   ar
    31    25    26   ar
    32    26    27   ar
    33    27    29    1
    34    29    30    3
    35    27    28   ar
    36    17    12   ar
    37    38    32   ar
    38    28    23   ar
    39     3     6    1
    40    10    11    1
@<TRIPOS>MOLECULE
*****
 38 40 0 0 0
SMALL
GASTEIGER

@<TRIPOS>ATOM
      1 C          60.3290   89.9094   11.9375 C.3     1  UNL1        0.0216
      2 C          61.5780   89.1270   11.6585 C.3     1  UNL1        0.0760
      3 N          62.9119   89.8129   11.6741 N.am    1  UNL1       -0.3044
      4 C          63.4534   90.3708   12.9568 C.2     1  UNL1        0.2382
      5 O          62.6611   90.2429   14.2240 O.2     1  UNL1       -0.2734
      6 H          63.4319   89.8969   10.8423 H       1  UNL1        0.1494
      7 C          64.7874   91.0567   12.9723 C.3     1  UNL1        0.1247
      8 C          65.0697   90.4770   14.3266 C.3     1  UNL1        0.0290
      9 C          64.5051   91.6365   11.6180 C.3     1  UNL1        0.0290
     10 N          66.1213   91.7426   12.9878 N.pl3   1  UNL1       -0.3139
     11 H          66.7781   91.5258   13.6884 H       1  UNL1        0.1485
     12 C          66.4545   92.7587   11.9359 C.ar    1  UNL1        0.1287
     13 C          67.2076   92.3459   10.7061 C.ar    1  UNL1        0.0341
     14 C          67.5407   93.3620    9.6543 C.ar    1  UNL1        0.0083
     15 C          67.1208   94.7910    9.8322 C.ar    1  UNL1        0.0906
     16 C          66.3677   95.2039   11.0620 C.ar    1  UNL1        0.1041
     17 N          66.0346   94.1877   12.1138 N.ar    1  UNL1       -0.2294
     18 C          67.4540   95.8072    8.7803 C.3     1  UNL1        0.4200
     19 F          67.7872   96.8233    7.7284 F       1  UNL1       -0.1658
     20 F          67.2989   94.7590    7.7186 F       1  UNL1       -0.1658
     21 F          67.6091   96.8553    9.8420 F       1  UNL1       -0.1658
     22 C          61.4931   87.6587   11.3639 C.3     1  UNL1        0.0446
     23 C          62.3606   86.6918   12.1141 C.ar    1  UNL1       -0.0199
     24 C          63.3901   87.2007   13.0791 C.ar    1  UNL1       -0.0042
     25 C          64.2575   86.2339   13.8293 C.ar    1  UNL1        0.0004
     26 C          64.0954   84.7583   13.6145 C.ar    1  UNL1        0.0103
     27 C          63.0659   84.2494   12.6496 C.ar    1  UNL1        0.0681
     28 C          62.1985   85.2162   11.8994 C.ar    1  UNL1        0.0061
     29 C          62.9038   82.7737   12.4348 C.1     1  UNL1        0.1004
     30 N          62.7418   81.2980   12.2201 N.1     1  UNL1       -0.1908
     31 C          60.5408   87.1572   10.3192 C.3     1  UNL1        0.0323
     32 C          61.0611   86.4122    9.1256 C.ar    1  UNL1       -0.0218
     33 C          62.5094   86.0283    9.0541 C.ar    1  UNL1       -0.0034
     34 C          63.0298   85.2834    7.8607 C.ar    1  UNL1        0.0111
     35 C          62.1019   84.9224    6.7388 C.ar    1  UNL1        0.0577
     36 CL         62.6222   84.1775    5.5453 Cl      1  UNL1       -0.0822
     37 C          60.6536   85.3064    6.8103 C.ar    1  UNL1        0.0111
     38 C          60.1333   86.0513    8.0037 C.ar    1  UNL1       -0.0034
@<TRIPOS>BOND
     1     2     1    1
     2     2     3    1
     3     3     4   am
     4     4     5    2
     5     4     7    1
     6     7     8    1
     7     7     9    1
     8     7    10    1
     9    10    12    1
    10    12    13   ar
    11    13    14   ar
    12    14    15   ar
    13    15    18    1
    14    18    19    1
    15    18    20    1
    16    18    21    1
    17    15    16   ar
    18    16    17   ar
    19     2    22    1
    20    22    31    1
    21    31    32    1
    22    32    33   ar
    23    33    34   ar
    24    34    35   ar
    25    35    36    1
    26    35    37   ar
    27    37    38   ar
    28    22    23    1
    29    23    24   ar
    30    24    25   ar
    31    25    26   ar
    32    26    27   ar
    33    27    29    1
    34    29    30    3
    35    27    28   ar
    36    17    12   ar
    37    38    32   ar
    38    28    23   ar
    39     3     6    1
    40    10    11    1
@<TRIPOS>MOLECULE
*****
 38 40 0 0 0
SMALL
GASTEIGER

@<TRIPOS>ATOM
      1 C          66.7289   91.8319   14.8229 C.3     1  UNL1        0.0216
      2 C          65.6685   91.1094   14.0459 C.3     1  UNL1        0.0760
      3 N          65.2957   89.7038   14.4138 N.am    1  UNL1       -0.3044
      4 C          64.1909   89.4538   15.3971 C.2     1  UNL1        0.2382
      5 O          63.4589   90.6093   16.0125 O.2     1  UNL1       -0.2734
      6 H          65.7762   88.9454   14.0099 H       1  UNL1        0.1494
      7 C          63.8182   88.0481   15.7650 C.3     1  UNL1        0.1247
      8 C          63.0348   88.5624   16.9361 C.3     1  UNL1        0.0290
      9 C          64.6016   87.5338   14.5938 C.3     1  UNL1        0.0290
     10 N          63.4455   86.6425   16.1328 N.pl3   1  UNL1       -0.3139
     11 H          63.1805   86.4293   17.0567 H       1  UNL1        0.1485
     12 C          63.4764   85.5618   15.0930 C.ar    1  UNL1        0.1287
     13 C          64.5632   84.5283   15.1176 C.ar    1  UNL1        0.0341
     14 C          64.5941   83.4476   14.0778 C.ar    1  UNL1        0.0083
     15 C          63.5382   83.4004   13.0135 C.ar    1  UNL1        0.0906
     16 C          62.4513   84.4339   12.9889 C.ar    1  UNL1        0.1041
     17 N          62.4205   85.5146   14.0287 N.ar    1  UNL1       -0.2294
     18 C          63.5691   82.3197   11.9737 C.3     1  UNL1        0.4200
     19 F          63.6001   81.2390   10.9340 F       1  UNL1       -0.1658
     20 F          62.1681   82.6699   11.5680 F       1  UNL1       -0.1658
     21 F          64.9700   81.9695   12.3794 F       1  UNL1       -0.1658
     22 C          64.9809   91.7924   12.9012 C.3     1  UNL1        0.0446
     23 C          65.7632   92.6774   11.9765 C.ar    1  UNL1       -0.0199
     24 C          65.6399   94.1686   12.0827 C.ar    1  UNL1       -0.0042
     25 C          66.4222   95.0535   11.1581 C.ar    1  UNL1        0.0004
     26 C          67.3278   94.4473   10.1274 C.ar    1  UNL1        0.0103
     27 C          67.4511   92.9562   10.0213 C.ar    1  UNL1        0.0681
     28 C          66.6688   92.0712   10.9458 C.ar    1  UNL1        0.0061
     29 C          68.3567   92.3500    8.9905 C.1     1  UNL1        0.1004
     30 N          69.2622   91.7438    7.9597 N.1     1  UNL1       -0.1908
     31 C          63.5109   91.5906   12.6809 C.3     1  UNL1        0.0323
     32 C          63.0321   90.5027   11.7658 C.ar    1  UNL1       -0.0218
     33 C          62.6226   90.8309   10.3606 C.ar    1  UNL1       -0.0034
     34 C          62.1437   89.7431    9.4455 C.ar    1  UNL1        0.0111
     35 C          62.0744   88.3272    9.9357 C.ar    1  UNL1        0.0577
     36 CL         61.5956   87.2393    9.0206 Cl      1  UNL1       -0.0822
     37 C          62.4839   87.9990   11.3409 C.ar    1  UNL1        0.0111
     38 C          62.9628   89.0868   12.2560 C.ar    1  UNL1       -0.0034
@<TRIPOS>BOND
     1     2     1    1
     2     2     3    1
     3     3     4   am
     4     4     5    2
     5     4     7    1
     6     7     8    1
     7     7     9    1
     8     7    10    1
     9    10    12    1
    10    12    13   ar
    11    13    14   ar
    12    14    15   ar
    13    15    18    1
    14    18    19    1
    15    18    20    1
    16    18    21    1
    17    15    16   ar
    18    16    17   ar
    19     2    22    1
    20    22    31    1
    21    31    32    1
    22    32    33   ar
    23    33    34   ar
    24    34    35   ar
    25    35    36    1
    26    35    37   ar
    27    37    38   ar
    28    22    23    1
    29    23    24   ar
    30    24    25   ar
    31    25    26   ar
    32    26    27   ar
    33    27    29    1
    34    29    30    3
    35    27    28   ar
    36    17    12   ar
    37    38    32   ar
    38    28    23   ar
    39     3     6    1
    40    10    11    1
@<TRIPOS>MOLECULE
*****
 38 40 0 0 0
SMALL
GASTEIGER

@<TRIPOS>ATOM
      1 C          61.3376   89.6168   13.2560 C.3     1  UNL1        0.0216
      2 C          62.6010   89.2483   12.5362 C.3     1  UNL1        0.0760
      3 N          63.1868   87.8775   12.7031 N.am    1  UNL1       -0.3044
      4 C          63.6817   87.4320   14.0472 C.2     1  UNL1        0.2382
      5 O          63.5908   88.3573   15.2244 O.2     1  UNL1       -0.2734
      6 H          63.2464   87.2703   11.9305 H       1  UNL1        0.1494
      7 C          64.2675   86.0612   14.2142 C.3     1  UNL1        0.1247
      8 C          65.1740   86.5798   15.2908 C.3     1  UNL1        0.0290
      9 C          63.3610   85.5427   13.1375 C.3     1  UNL1        0.0290
     10 N          64.8533   84.6905   14.3811 N.pl3   1  UNL1       -0.3139
     11 H          65.5627   84.5360   15.0461 H       1  UNL1        0.1485
     12 C          64.3582   83.5551   13.5350 C.ar    1  UNL1        0.1287
     13 C          63.5525   82.4528   14.1560 C.ar    1  UNL1        0.0341
     14 C          63.0575   81.3175   13.3099 C.ar    1  UNL1        0.0083
     15 C          63.3682   81.2845   11.8428 C.ar    1  UNL1        0.0906
     16 C          64.1739   82.3868   11.2218 C.ar    1  UNL1        0.1041
     17 N          64.6689   83.5221   12.0679 N.ar    1  UNL1       -0.2294
     18 C          62.8731   80.1491   10.9967 C.3     1  UNL1        0.4200
     19 F          62.3781   79.0137   10.1506 F       1  UNL1       -0.1658
     20 F          62.4705   79.4026   12.2338 F       1  UNL1       -0.1658
     21 F          63.2758   80.8955    9.7595 F       1  UNL1       -0.1658
     22 C          63.2786   90.2505   11.6494 C.3     1  UNL1        0.0446
     23 C          64.3262   91.1639   12.2135 C.ar    1  UNL1       -0.0199
     24 C          64.7602   91.0157   13.6417 C.ar    1  UNL1       -0.0042
     25 C          65.8078   91.9290   14.2058 C.ar    1  UNL1        0.0004
     26 C          66.4215   92.9905   13.3418 C.ar    1  UNL1        0.0103
     27 C          65.9875   93.1386   11.9136 C.ar    1  UNL1        0.0681
     28 C          64.9399   92.2253   11.3494 C.ar    1  UNL1        0.0061
     29 C          66.6013   94.2002   11.0495 C.1     1  UNL1        0.1004
     30 N          67.2150   95.2616   10.1854 N.1     1  UNL1       -0.1908
     31 C          62.9085   90.3394   10.1984 C.3     1  UNL1        0.0323
     32 C          61.9726   89.3314    9.6000 C.ar    1  UNL1       -0.0218
     33 C          62.3669   87.8854    9.5390 C.ar    1  UNL1       -0.0034
     34 C          61.4310   86.8774    8.9406 C.ar    1  UNL1        0.0111
     35 C          60.1008   87.3154    8.4033 C.ar    1  UNL1        0.0577
     36 CL         59.1649   86.3074    7.8049 Cl      1  UNL1       -0.0822
     37 C          59.7065   88.7614    8.4643 C.ar    1  UNL1        0.0111
     38 C          60.6424   89.7693    9.0627 C.ar    1  UNL1       -0.0034
@<TRIPOS>BOND
     1     2     1    1
     2     2     3    1
     3     3     4   am
     4     4     5    2
     5     4     7    1
     6     7     8    1
     7     7     9    1
     8     7    10    1
     9    10    12    1
    10    12    13   ar
    11    13    14   ar
    12    14    15   ar
    13    15    18    1
    14    18    19    1
    15    18    20    1
    16    18    21    1
    17    15    16   ar
    18    16    17   ar
    19     2    22    1
    20    22    31    1
    21    31    32    1
    22    32    33   ar
    23    33    34   ar
    24    34    35   ar
    25    35    36    1
    26    35    37   ar
    27    37    38   ar
    28    22    23    1
    29    23    24   ar
    30    24    25   ar
    31    25    26   ar
    32    26    27   ar
    33    27    29    1
    34    29    30    3
    35    27    28   ar
    36    17    12   ar
    37    38    32   ar
    38    28    23   ar
    39     3     6    1
    40    10    11    1
