@<TRIPOS>MOLECULE
*****
 33 37 0 0 0
SMALL
GASTEIGER

@<TRIPOS>ATOM
      1 C          62.7596   86.7737   11.9236 C.2     1  UNL1        0.2506
      2 O          63.5492   87.4041   13.0323 O.2     1  UNL1       -0.2699
      3 N          61.7892   87.5984   11.1312 N.am    1  UNL1       -0.2724
      4 C          60.9995   86.9681   10.0225 C.3     1  UNL1        0.1231
      5 C          60.0291   87.7928    9.2301 C.3     1  UNL1        0.1351
      6 C          59.2394   87.1624    8.1213 C.3     1  UNL1        0.0339
      7 O          59.8482   89.2479    9.5463 O.3     1  UNL1       -0.3527
      8 C          60.6377   89.8782   10.6550 C.3     1  UNL1        0.1621
      9 C          61.6083   89.0535   11.4475 C.3     1  UNL1        0.1096
     10 C          63.4832   80.9534   10.6587 C.3     1  UNL1        0.0311
     11 C          63.3023   82.4084   10.9749 C.ar    1  UNL1       -0.0203
     12 C          63.1613   83.4056    9.8633 C.ar    1  UNL1       -0.0040
     13 C          62.9804   84.8607   10.1796 C.ar    1  UNL1        0.0058
     14 C          62.9405   85.3186   11.6074 C.ar    1  UNL1        0.0729
     15 C          63.0816   84.3214   12.7190 C.ar    1  UNL1        0.1069
     16 C          63.2625   82.8663   12.4027 C.ar    1  UNL1        0.0168
     17 N          63.0417   84.7793   14.1469 N.ar    1  UNL1       -0.1477
     18 N          64.2011   85.3144   14.9339 N.ar    1  UNL1       -0.1447
     19 C          63.7114   85.6483   16.3118 C.ar    1  UNL1        0.1446
     20 C          62.2493   85.3194   16.3764 C.ar    1  UNL1        0.1446
     21 N          61.8354   84.7823   15.0384 N.ar    1  UNL1       -0.1447
     22 C          62.3979   89.6839   12.5561 C.3     1  UNL1        0.0488
     23 C          63.4985   90.6517   12.2367 C.ar    1  UNL1       -0.0189
     24 C          63.5880   91.2610   10.8690 C.ar    1  UNL1       -0.0041
     25 C          64.6886   92.2288   10.5496 C.ar    1  UNL1        0.0013
     26 C          65.6997   92.5873   11.5980 C.ar    1  UNL1        0.0209
     27 C          65.6102   91.9780   12.9657 C.ar    1  UNL1        0.1026
     28 C          64.5096   91.0102   13.2851 C.ar    1  UNL1        0.0167
     29 N          66.6213   92.3365   14.0141 N.ar    1  UNL1       -0.1478
     30 N          66.3195   92.7874   15.4125 N.ar    1  UNL1       -0.1447
     31 C          67.6235   93.0366   16.1108 C.ar    1  UNL1        0.1446
     32 C          68.7312   92.7397   15.1439 C.ar    1  UNL1        0.1446
     33 N          68.1119   92.3070   13.8481 N.ar    1  UNL1       -0.1447
@<TRIPOS>BOND
     1    10    11    1
     2    11    12   ar
     3    12    13   ar
     4    13    14   ar
     5    14     1    1
     6     1     2    2
     7     1     3   am
     8     3     4    1
     9     4     5    1
    10     5     6    1
    11     5     7    1
    12     7     8    1
    13     8     9    1
    14     9    22    1
    15    22    23    1
    16    23    24   ar
    17    24    25   ar
    18    25    26   ar
    19    26    27   ar
    20    27    29    1
    21    29    30   ar
    22    30    31   ar
    23    31    32   ar
    24    32    33   ar
    25    27    28   ar
    26    14    15   ar
    27    15    17    1
    28    17    18   ar
    29    18    19   ar
    30    19    20   ar
    31    20    21   ar
    32    15    16   ar
    33    16    11   ar
    34     9     3    1
    35    28    23   ar
    36    21    17   ar
    37    33    29   ar
@<TRIPOS>MOLECULE
*****
 33 37 0 0 0
SMALL
GASTEIGER

@<TRIPOS>ATOM
      1 C          63.5288   87.6517   13.2963 C.2     1  UNL1        0.2506
      2 O          63.7310   88.6566   12.2011 O.2     1  UNL1       -0.2699
      3 N          63.3985   88.1089   14.7189 N.am    1  UNL1       -0.2724
      4 C          63.1963   87.1041   15.8141 C.3     1  UNL1        0.1231
      5 C          63.0660   87.5613   17.2367 C.3     1  UNL1        0.1351
      6 C          62.8638   86.5564   18.3320 C.3     1  UNL1        0.0339
      7 O          63.1379   89.0233   17.5642 O.3     1  UNL1       -0.3527
      8 C          63.3400   90.0282   16.4691 C.3     1  UNL1        0.1621
      9 C          63.4704   89.5710   15.0464 C.3     1  UNL1        0.1096
     10 C          63.2414   81.8035   11.9863 C.3     1  UNL1        0.0311
     11 C          63.3132   83.2656   12.3138 C.ar    1  UNL1       -0.0203
     12 C          64.1882   83.7407   13.4356 C.ar    1  UNL1       -0.0040
     13 C          64.2600   85.2028   13.7631 C.ar    1  UNL1        0.0058
     14 C          63.4570   86.1897   12.9688 C.ar    1  UNL1        0.0729
     15 C          62.5820   85.7145   11.8469 C.ar    1  UNL1        0.1069
     16 C          62.5102   84.2525   11.5194 C.ar    1  UNL1        0.0168
     17 N          61.7789   86.7014   11.0524 N.ar    1  UNL1       -0.1477
     18 N          62.0480   87.1218    9.6379 N.ar    1  UNL1       -0.1447
     19 C          61.0012   88.1214    9.2442 C.ar    1  UNL1        0.1446
     20 C          60.0850   88.3187   10.4155 C.ar    1  UNL1        0.1446
     21 N          60.5657   87.4411   11.5330 N.ar    1  UNL1       -0.1447
     22 C          63.6726   90.5758   13.9512 C.3     1  UNL1        0.0488
     23 C          64.9940   91.2705   13.8053 C.ar    1  UNL1       -0.0189
     24 C          66.0928   91.0069   14.7917 C.ar    1  UNL1       -0.0041
     25 C          67.4143   91.7015   14.6458 C.ar    1  UNL1        0.0013
     26 C          67.6368   92.6598   13.5135 C.ar    1  UNL1        0.0209
     27 C          66.5379   92.9235   12.5271 C.ar    1  UNL1        0.1026
     28 C          65.2165   92.2288   12.6730 C.ar    1  UNL1        0.0167
     29 N          66.7605   93.8818   11.3948 N.ar    1  UNL1       -0.1478
     30 N          66.2410   95.2866   11.3137 N.ar    1  UNL1       -0.1447
     31 C          66.7010   95.8766   10.0135 C.ar    1  UNL1        0.1446
     32 C          67.5048   94.8363    9.2910 C.ar    1  UNL1        0.1446
     33 N          67.5415   93.6035   10.1447 N.ar    1  UNL1       -0.1447
@<TRIPOS>BOND
     1    10    11    1
     2    11    12   ar
     3    12    13   ar
     4    13    14   ar
     5    14     1    1
     6     1     2    2
     7     1     3   am
     8     3     4    1
     9     4     5    1
    10     5     6    1
    11     5     7    1
    12     7     8    1
    13     8     9    1
    14     9    22    1
    15    22    23    1
    16    23    24   ar
    17    24    25   ar
    18    25    26   ar
    19    26    27   ar
    20    27    29    1
    21    29    30   ar
    22    30    31   ar
    23    31    32   ar
    24    32    33   ar
    25    27    28   ar
    26    14    15   ar
    27    15    17    1
    28    17    18   ar
    29    18    19   ar
    30    19    20   ar
    31    20    21   ar
    32    15    16   ar
    33    16    11   ar
    34     9     3    1
    35    28    23   ar
    36    21    17   ar
    37    33    29   ar
@<TRIPOS>MOLECULE
*****
 33 37 0 0 0
SMALL
GASTEIGER

@<TRIPOS>ATOM
      1 C          63.0939   87.1748   12.5363 C.2     1  UNL1        0.2506
      2 O          63.7611   87.5730   13.8194 O.2     1  UNL1       -0.2699
      3 N          62.3992   88.2083   11.7001 N.am    1  UNL1       -0.2724
      4 C          61.7319   87.8102   10.4170 C.3     1  UNL1        0.1231
      5 C          61.0372   88.8437    9.5808 C.3     1  UNL1        0.1351
      6 C          60.3700   88.4456    8.2977 C.3     1  UNL1        0.0339
      7 O          61.0097   90.2753   10.0277 O.3     1  UNL1       -0.3527
      8 C          61.6768   90.6734   11.3108 C.3     1  UNL1        0.1621
      9 C          62.3716   89.6399   12.1470 C.3     1  UNL1        0.1096
     10 C          63.2041   81.4484   10.7487 C.3     1  UNL1        0.0311
     11 C          63.1765   82.8800   11.1956 C.ar    1  UNL1       -0.0203
     12 C          63.1848   83.9832   10.1794 C.ar    1  UNL1       -0.0040
     13 C          63.1572   85.4148   10.6263 C.ar    1  UNL1        0.0058
     14 C          63.1214   85.7432   12.0894 C.ar    1  UNL1        0.0729
     15 C          63.1132   84.6400   13.1056 C.ar    1  UNL1        0.1069
     16 C          63.1407   83.2084   12.6587 C.ar    1  UNL1        0.0168
     17 N          63.0773   84.9684   14.5689 N.ar    1  UNL1       -0.1477
     18 N          64.2492   85.3830   15.4083 N.ar    1  UNL1       -0.1447
     19 C          63.7596   85.6107   16.8078 C.ar    1  UNL1        0.1446
     20 C          62.2850   85.3367   16.8332 C.ar    1  UNL1        0.1446
     21 N          61.8634   84.9397   15.4495 N.ar    1  UNL1       -0.1447
     22 C          63.0388   90.0381   13.4301 C.3     1  UNL1        0.0488
     23 C          64.3500   90.7659   13.3992 C.ar    1  UNL1       -0.0189
     24 C          65.3319   90.5901   14.5194 C.ar    1  UNL1       -0.0041
     25 C          66.6432   91.3179   14.4886 C.ar    1  UNL1        0.0013
     26 C          66.9725   92.2215   13.3375 C.ar    1  UNL1        0.0209
     27 C          65.9906   92.3973   12.2173 C.ar    1  UNL1        0.1026
     28 C          64.6794   91.6694   12.2481 C.ar    1  UNL1        0.0167
     29 N          66.3199   93.3009   11.0661 N.ar    1  UNL1       -0.1478
     30 N          65.5634   94.5335   10.6683 N.ar    1  UNL1       -0.1447
     31 C          66.2395   95.1249    9.4670 C.ar    1  UNL1        0.1446
     32 C          67.4140   94.2577    9.1223 C.ar    1  UNL1        0.1446
     33 N          67.4636   93.1304   10.1106 N.ar    1  UNL1       -0.1447
@<TRIPOS>BOND
     1    10    11    1
     2    11    12   ar
     3    12    13   ar
     4    13    14   ar
     5    14     1    1
     6     1     2    2
     7     1     3   am
     8     3     4    1
     9     4     5    1
    10     5     6    1
    11     5     7    1
    12     7     8    1
    13     8     9    1
    14     9    22    1
    15    22    23    1
    16    23    24   ar
    17    24    25   ar
    18    25    26   ar
    19    26    27   ar
    20    27    29    1
    21    29    30   ar
    22    30    31   ar
    23    31    32   ar
    24    32    33   ar
    25    27    28   ar
    26    14    15   ar
    27    15    17    1
    28    17    18   ar
    29    18    19   ar
    30    19    20   ar
    31    20    21   ar
    32    15    16   ar
    33    16    11   ar
    34     9     3    1
    35    28    23   ar
    36    21    17   ar
    37    33    29   ar
@<TRIPOS>MOLECULE
*****
 33 37 0 0 0
SMALL
GASTEIGER

@<TRIPOS>ATOM
      1 C          62.7247   88.5536   11.6029 C.2     1  UNL1        0.2506
      2 O          62.6968   90.0531   11.5761 O.2     1  UNL1       -0.2699
      3 N          63.3620   87.8359   12.7556 N.am    1  UNL1       -0.2724
      4 C          63.3900   86.3363   12.7825 C.3     1  UNL1        0.1231
      5 C          64.0273   85.6186   13.9351 C.3     1  UNL1        0.1351
      6 C          64.0552   84.1191   13.9620 C.3     1  UNL1        0.0339
      7 O          64.6367   86.4004   15.0610 O.3     1  UNL1       -0.3527
      8 C          64.6088   87.8998   15.0341 C.3     1  UNL1        0.1621
      9 C          63.9714   88.6176   13.8814 C.3     1  UNL1        0.1096
     10 C          60.2871   85.4266    7.0996 C.3     1  UNL1        0.0311
     11 C          60.8965   86.2084    8.2254 C.ar    1  UNL1       -0.0203
     12 C          62.3390   86.0068    8.5838 C.ar    1  UNL1       -0.0040
     13 C          62.9484   86.7886    9.7097 C.ar    1  UNL1        0.0058
     14 C          62.1153   87.7719   10.4771 C.ar    1  UNL1        0.0729
     15 C          60.6728   87.9734   10.1187 C.ar    1  UNL1        0.1069
     16 C          60.0634   87.1916    8.9929 C.ar    1  UNL1        0.0168
     17 N          59.8396   88.9567   10.8862 N.ar    1  UNL1       -0.1477
     18 N          59.0821   88.6738   12.1496 N.ar    1  UNL1       -0.1447
     19 C          58.3920   89.9377   12.5693 C.ar    1  UNL1        0.1446
     20 C          58.7229   91.0018   11.5652 C.ar    1  UNL1        0.1446
     21 N          59.6176   90.3955   10.5250 N.ar    1  UNL1       -0.1447
     22 C          63.9435   90.1171   13.8546 C.3     1  UNL1        0.0488
     23 C          65.2271   90.8900   13.7822 C.ar    1  UNL1       -0.0189
     24 C          66.1734   90.8830   14.9459 C.ar    1  UNL1       -0.0041
     25 C          67.4569   91.6559   14.8734 C.ar    1  UNL1        0.0013
     26 C          67.7941   92.4357   13.6372 C.ar    1  UNL1        0.0209
     27 C          66.8477   92.4426   12.4735 C.ar    1  UNL1        0.1026
     28 C          65.5642   91.6698   12.5460 C.ar    1  UNL1        0.0167
     29 N          67.1849   93.2224   11.2372 N.ar    1  UNL1       -0.1478
     30 N          66.8554   94.6642   10.9870 N.ar    1  UNL1       -0.1447
     31 C          67.3776   95.0302    9.6293 C.ar    1  UNL1        0.1446
     32 C          68.0299   93.8145    9.0404 C.ar    1  UNL1        0.1446
     33 N          67.9107   92.6973   10.0341 N.ar    1  UNL1       -0.1447
@<TRIPOS>BOND
     1    10    11    1
     2    11    12   ar
     3    12    13   ar
     4    13    14   ar
     5    14     1    1
     6     1     2    2
     7     1     3   am
     8     3     4    1
     9     4     5    1
    10     5     6    1
    11     5     7    1
    12     7     8    1
    13     8     9    1
    14     9    22    1
    15    22    23    1
    16    23    24   ar
    17    24    25   ar
    18    25    26   ar
    19    26    27   ar
    20    27    29    1
    21    29    30   ar
    22    30    31   ar
    23    31    32   ar
    24    32    33   ar
    25    27    28   ar
    26    14    15   ar
    27    15    17    1
    28    17    18   ar
    29    18    19   ar
    30    19    20   ar
    31    20    21   ar
    32    15    16   ar
    33    16    11   ar
    34     9     3    1
    35    28    23   ar
    36    21    17   ar
    37    33    29   ar
