@<TRIPOS>MOLECULE
*****
 34 36 0 0 0
SMALL
GASTEIGER

@<TRIPOS>ATOM
      1 C          63.9996   91.1487   13.2907 C.ar    1  UNL1        0.0891
      2 C          63.0118   90.0264   13.1694 C.ar    1  UNL1        0.0234
      3 C          62.4427   89.6699   11.8281 C.ar    1  UNL1        0.0651
      4 C          62.8614   90.4357   10.6082 C.ar    1  UNL1        0.0190
      5 C          63.8491   91.5580   10.7295 C.ar    1  UNL1        0.0390
      6 C          64.4183   91.9145   12.0708 C.ar    1  UNL1        0.1497
      7 N          65.9741   92.0185   14.7380 N.am    1  UNL1       -0.3008
      8 C          64.5688   91.5051   14.6320 C.2     1  UNL1        0.2489
      9 O          63.7325   91.3483   15.8673 O.2     1  UNL1       -0.2700
     10 H          66.5230   92.1215   13.9272 H       1  UNL1        0.1497
     11 C          68.0297   92.4117   16.2775 C.3     1  UNL1        0.0230
     12 C          66.5433   92.3750   16.0793 C.3     1  UNL1        0.0898
     13 N          61.4549   88.5476   11.7068 N.pl3   1  UNL1       -0.2150
     14 H          60.4909   88.7289   11.7915 H       1  UNL1        0.1737
     15 S          61.9358   87.1490   11.4564 S.O2    1  UNL1        0.0744
     16 O          60.6948   86.8643   10.6633 O.2     1  UNL1       -0.1499
     17 O          63.1767   87.4337   12.2495 O.2     1  UNL1       -0.1499
     18 C          62.4167   85.7504   11.2060 C.ar    1  UNL1        0.1354
     19 C          62.4730   84.7634   12.3341 C.ar    1  UNL1        0.0176
     20 C          62.9539   83.3648   12.0837 C.ar    1  UNL1       -0.0099
     21 C          63.0103   82.3779   13.2118 C.3     1  UNL1        0.0320
     22 C          63.3785   82.9533   10.7051 C.ar    1  UNL1        0.0546
     23 CL         63.8594   81.5547   10.4547 Cl      1  UNL1       -0.0825
     24 C          63.3221   83.9403    9.5770 C.ar    1  UNL1        0.0238
     25 C          62.8412   85.3389    9.8275 C.ar    1  UNL1        0.0773
     26 CL         62.7849   86.3259    8.6993 Cl      1  UNL1       -0.0808
     27 O          65.4061   93.0368   12.1921 O.3     1  UNL1       -0.4517
     28 C          66.1817   93.4865   10.9896 C.ar    1  UNL1        0.1652
     29 C          65.9155   94.8337   10.3861 C.ar    1  UNL1        0.1363
     30 N          66.6911   95.2834    9.1836 N.ar    1  UNL1       -0.2382
     31 C          67.7330   94.3859    8.5845 C.ar    1  UNL1        0.1104
     32 C          67.9993   93.0388    9.1879 C.ar    1  UNL1        0.0798
     33 CL         69.0413   92.1413    8.5888 Cl      1  UNL1       -0.0805
     34 C          67.2237   92.5890   10.3905 C.ar    1  UNL1        0.0521
@<TRIPOS>BOND
     1    11    12    1
     2    12     7    1
     3     7     8   am
     4     8     9    2
     5     8     1    1
     6     1     2   ar
     7     2     3   ar
     8     3    13    1
     9    13    15    1
    10    15    16    2
    11    15    17    2
    12    15    18    1
    13    18    19   ar
    14    19    20   ar
    15    20    21    1
    16    20    22   ar
    17    22    23    1
    18    22    24   ar
    19    24    25   ar
    20    25    26    1
    21     3     4   ar
    22     4     5   ar
    23     5     6   ar
    24     6    27    1
    25    27    28    1
    26    28    29   ar
    27    29    30   ar
    28    30    31   ar
    29    31    32   ar
    30    32    33    1
    31    32    34   ar
    32     6     1   ar
    33    34    28   ar
    34    25    18   ar
    35     7    10    1
    36    13    14    1
@<TRIPOS>MOLECULE
*****
 34 36 0 0 0
SMALL
GASTEIGER

@<TRIPOS>ATOM
      1 C          64.0647   91.0833   13.2067 C.ar    1  UNL1        0.0891
      2 C          63.2021   89.8587   13.1297 C.ar    1  UNL1        0.0234
      3 C          62.6271   89.4278   11.8131 C.ar    1  UNL1        0.0651
      4 C          62.9146   90.2216   10.5733 C.ar    1  UNL1        0.0190
      5 C          63.7773   91.4463   10.6502 C.ar    1  UNL1        0.0390
      6 C          64.3523   91.8772   11.9669 C.ar    1  UNL1        0.1497
      7 N          66.0536   92.0096   14.5982 N.am    1  UNL1       -0.3008
      8 C          64.6398   91.5142   14.5233 C.2     1  UNL1        0.2489
      9 O          63.8011   91.4496   15.7652 O.2     1  UNL1       -0.2700
     10 H          66.6041   92.0520   13.7831 H       1  UNL1        0.1497
     11 C          68.0984   92.7140   16.0378 C.3     1  UNL1        0.0230
     12 C          66.6287   92.4405   15.9148 C.3     1  UNL1        0.0898
     13 N          61.7644   88.2030   11.7362 N.pl3   1  UNL1       -0.2150
     14 H          60.8086   88.2872   11.5155 H       1  UNL1        0.1737
     15 S          62.3579   86.8501   11.9957 S.O2    1  UNL1        0.0744
     16 O          61.1228   86.2023   11.4435 O.2     1  UNL1       -0.1499
     17 O          63.5931   87.4979   12.5478 O.2     1  UNL1       -0.1499
     18 C          62.9515   85.4972   12.2552 C.ar    1  UNL1        0.1354
     19 C          62.8568   84.4239   11.2115 C.ar    1  UNL1        0.0176
     20 C          63.4503   83.0710   11.4709 C.ar    1  UNL1       -0.0099
     21 C          63.3557   81.9978   10.4273 C.3     1  UNL1        0.0320
     22 C          64.1386   82.7914   12.7741 C.ar    1  UNL1        0.0546
     23 CL         64.7322   81.4385   13.0336 Cl      1  UNL1       -0.0825
     24 C          64.2333   83.8646   13.8177 C.ar    1  UNL1        0.0238
     25 C          63.6397   85.2175   13.5582 C.ar    1  UNL1        0.0773
     26 CL         63.7344   86.2908   14.6019 Cl      1  UNL1       -0.0808
     27 O          65.2150   93.1019   12.0437 O.3     1  UNL1       -0.4517
     28 C          66.3201   93.3044   11.0500 C.ar    1  UNL1        0.1652
     29 C          67.4126   92.2842   10.9249 C.ar    1  UNL1        0.1363
     30 N          68.5178   92.4867    9.9312 N.ar    1  UNL1       -0.2382
     31 C          68.5305   93.7094    9.0624 C.ar    1  UNL1        0.1104
     32 C          67.4381   94.7297    9.1874 C.ar    1  UNL1        0.0798
     33 CL         67.4508   95.9524    8.3187 Cl      1  UNL1       -0.0805
     34 C          66.3328   94.5272   10.1812 C.ar    1  UNL1        0.0521
@<TRIPOS>BOND
     1    11    12    1
     2    12     7    1
     3     7     8   am
     4     8     9    2
     5     8     1    1
     6     1     2   ar
     7     2     3   ar
     8     3    13    1
     9    13    15    1
    10    15    16    2
    11    15    17    2
    12    15    18    1
    13    18    19   ar
    14    19    20   ar
    15    20    21    1
    16    20    22   ar
    17    22    23    1
    18    22    24   ar
    19    24    25   ar
    20    25    26    1
    21     3     4   ar
    22     4     5   ar
    23     5     6   ar
    24     6    27    1
    25    27    28    1
    26    28    29   ar
    27    29    30   ar
    28    30    31   ar
    29    31    32   ar
    30    32    33    1
    31    32    34   ar
    32     6     1   ar
    33    34    28   ar
    34    25    18   ar
    35     7    10    1
    36    13    14    1
@<TRIPOS>MOLECULE
*****
 34 36 0 0 0
SMALL
GASTEIGER

@<TRIPOS>ATOM
      1 C          64.7472   90.5543   14.5746 C.ar    1  UNL1        0.0891
      2 C          64.6221   89.1811   15.1649 C.ar    1  UNL1        0.0234
      3 C          64.0249   88.0683   14.3555 C.ar    1  UNL1        0.0651
      4 C          63.5527   88.3288   12.9558 C.ar    1  UNL1        0.0190
      5 C          63.6777   89.7021   12.3656 C.ar    1  UNL1        0.0390
      6 C          64.2749   90.8148   13.1750 C.ar    1  UNL1        0.1497
      7 N          66.8157   91.9475   15.3027 N.am    1  UNL1       -0.3008
      8 C          65.3444   91.6671   15.3840 C.2     1  UNL1        0.2489
      9 O          64.4704   92.4993   16.2747 O.2     1  UNL1       -0.2700
     10 H          67.3893   91.4013   14.7181 H       1  UNL1        0.1497
     11 C          68.8011   93.5437   15.8131 C.3     1  UNL1        0.0230
     12 C          67.4129   93.0603   16.1121 C.3     1  UNL1        0.0898
     13 N          63.8999   86.6950   14.9458 N.pl3   1  UNL1       -0.2150
     14 H          63.9197   86.5755   15.9229 H       1  UNL1        0.1737
     15 S          63.7447   85.5038   14.0475 S.O2    1  UNL1        0.0744
     16 O          65.2218   85.2542   14.1232 O.2     1  UNL1       -0.1499
     17 O          62.2675   85.7533   13.9719 O.2     1  UNL1       -0.1499
     18 C          63.5894   84.3126   13.1492 C.ar    1  UNL1        0.1354
     19 C          63.8374   84.4469   11.6759 C.ar    1  UNL1        0.0176
     20 C          63.6821   83.2557   10.7776 C.ar    1  UNL1       -0.0099
     21 C          63.9300   83.3900    9.3044 C.3     1  UNL1        0.0320
     22 C          63.2790   81.9302   11.3526 C.ar    1  UNL1        0.0546
     23 CL         63.1238   80.7390   10.4543 Cl      1  UNL1       -0.0825
     24 C          63.0311   81.7959   12.8259 C.ar    1  UNL1        0.0238
     25 C          63.1863   82.9871   13.7242 C.ar    1  UNL1        0.0773
     26 CL         62.9384   82.8528   15.1975 Cl      1  UNL1       -0.0808
     27 O          64.4000   92.1882   12.5846 O.3     1  UNL1       -0.4517
     28 C          65.5946   92.5391   11.7482 C.ar    1  UNL1        0.1652
     29 C          66.9099   91.8623   11.9978 C.ar    1  UNL1        0.1363
     30 N          68.1045   92.2132   11.1614 N.ar    1  UNL1       -0.2382
     31 C          67.9841   93.2409   10.0755 C.ar    1  UNL1        0.1104
     32 C          66.6689   93.9177    9.8259 C.ar    1  UNL1        0.0798
     33 CL         66.5485   94.9454    8.7399 Cl      1  UNL1       -0.0805
     34 C          65.4742   93.5668   10.6623 C.ar    1  UNL1        0.0521
@<TRIPOS>BOND
     1    11    12    1
     2    12     7    1
     3     7     8   am
     4     8     9    2
     5     8     1    1
     6     1     2   ar
     7     2     3   ar
     8     3    13    1
     9    13    15    1
    10    15    16    2
    11    15    17    2
    12    15    18    1
    13    18    19   ar
    14    19    20   ar
    15    20    21    1
    16    20    22   ar
    17    22    23    1
    18    22    24   ar
    19    24    25   ar
    20    25    26    1
    21     3     4   ar
    22     4     5   ar
    23     5     6   ar
    24     6    27    1
    25    27    28    1
    26    28    29   ar
    27    29    30   ar
    28    30    31   ar
    29    31    32   ar
    30    32    33    1
    31    32    34   ar
    32     6     1   ar
    33    34    28   ar
    34    25    18   ar
    35     7    10    1
    36    13    14    1
@<TRIPOS>MOLECULE
*****
 34 36 0 0 0
SMALL
GASTEIGER

@<TRIPOS>ATOM
      1 C          62.1003   89.3641   11.3763 C.ar    1  UNL1        0.0891
      2 C          62.8567   90.5954   11.7785 C.ar    1  UNL1        0.0234
      3 C          63.9488   90.5036   12.8027 C.ar    1  UNL1        0.0651
      4 C          64.2844   89.1806   13.4247 C.ar    1  UNL1        0.0190
      5 C          63.5280   87.9493   13.0225 C.ar    1  UNL1        0.0390
      6 C          62.4360   88.0411   11.9983 C.ar    1  UNL1        0.1497
      7 N          60.8775   88.3966    9.2982 N.am    1  UNL1       -0.3008
      8 C          61.0083   89.4559   10.3521 C.2     1  UNL1        0.2489
      9 O          60.0470   90.6069   10.3818 O.2     1  UNL1       -0.2700
     10 H          61.5084   87.6411    9.2787 H       1  UNL1        0.1497
     11 C          59.1452   87.2387    7.7463 C.3     1  UNL1        0.0230
     12 C          59.7854   88.4884    8.2740 C.3     1  UNL1        0.0898
     13 N          64.7052   91.7349   13.2050 N.pl3   1  UNL1       -0.2150
     14 H          64.7862   91.9740   14.1565 H       1  UNL1        0.1737
     15 S          65.3381   92.6020   12.1573 S.O2    1  UNL1        0.0744
     16 O          64.7195   91.7564   11.0838 O.2     1  UNL1       -0.1499
     17 O          65.9567   93.4475   13.2308 O.2     1  UNL1       -0.1499
     18 C          65.9711   93.4690   11.1096 C.ar    1  UNL1        0.1354
     19 C          65.2882   94.7287   10.6657 C.ar    1  UNL1        0.0176
     20 C          65.9212   95.5957    9.6181 C.ar    1  UNL1       -0.0099
     21 C          65.2384   96.8553    9.1742 C.3     1  UNL1        0.0320
     22 C          67.2370   95.2031    9.0143 C.ar    1  UNL1        0.0546
     23 CL         67.8699   96.0701    7.9666 Cl      1  UNL1       -0.0825
     24 C          67.9198   93.9435    9.4581 C.ar    1  UNL1        0.0238
     25 C          67.2868   93.0764   10.5058 C.ar    1  UNL1        0.0773
     26 CL         67.9697   91.8167   10.9497 Cl      1  UNL1       -0.0808
     27 O          61.6796   86.8097   11.5961 O.3     1  UNL1       -0.4517
     28 C          62.4229   85.5801   11.1656 C.ar    1  UNL1        0.1652
     29 C          62.7652   85.3785    9.7191 C.ar    1  UNL1        0.1363
     30 N          63.5086   84.1489    9.2886 N.ar    1  UNL1       -0.2382
     31 C          63.9096   83.1207   10.3045 C.ar    1  UNL1        0.1104
     32 C          63.5673   83.3222   11.7509 C.ar    1  UNL1        0.0798
     33 CL         63.9683   82.2941   12.7668 Cl      1  UNL1       -0.0805
     34 C          62.8239   84.5519   12.1815 C.ar    1  UNL1        0.0521
@<TRIPOS>BOND
     1    11    12    1
     2    12     7    1
     3     7     8   am
     4     8     9    2
     5     8     1    1
     6     1     2   ar
     7     2     3   ar
     8     3    13    1
     9    13    15    1
    10    15    16    2
    11    15    17    2
    12    15    18    1
    13    18    19   ar
    14    19    20   ar
    15    20    21    1
    16    20    22   ar
    17    22    23    1
    18    22    24   ar
    19    24    25   ar
    20    25    26    1
    21     3     4   ar
    22     4     5   ar
    23     5     6   ar
    24     6    27    1
    25    27    28    1
    26    28    29   ar
    27    29    30   ar
    28    30    31   ar
    29    31    32   ar
    30    32    33    1
    31    32    34   ar
    32     6     1   ar
    33    34    28   ar
    34    25    18   ar
    35     7    10    1
    36    13    14    1
@<TRIPOS>MOLECULE
*****
 34 36 0 0 0
SMALL
GASTEIGER

@<TRIPOS>ATOM
      1 C          62.8961   88.1908   11.9030 C.ar    1  UNL1        0.0891
      2 C          63.1143   86.8483   12.5355 C.ar    1  UNL1        0.0234
      3 C          63.8047   86.7481   13.8633 C.ar    1  UNL1        0.0651
      4 C          64.2770   87.9903   14.5587 C.ar    1  UNL1        0.0190
      5 C          64.0588   89.3328   13.9263 C.ar    1  UNL1        0.0390
      6 C          63.3684   89.4331   12.5984 C.ar    1  UNL1        0.1497
      7 N          61.1102   89.2955   10.3733 N.am    1  UNL1       -0.3008
      8 C          62.2057   88.2910   10.5751 C.2     1  UNL1        0.2489
      9 O          62.6108   87.3867    9.4490 O.2     1  UNL1       -0.2700
     10 H          60.8443   89.8890   11.1124 H       1  UNL1        0.1497
     11 C          59.6387   88.2294    8.5163 C.3     1  UNL1        0.0230
     12 C          60.4197   89.3957    9.0455 C.3     1  UNL1        0.0898
     13 N          64.0229   85.4055   14.4958 N.pl3   1  UNL1       -0.2150
     14 H          64.3506   85.3451   15.4222 H       1  UNL1        0.1737
     15 S          63.7417   84.1549   13.7167 S.O2    1  UNL1        0.0744
     16 O          65.2134   83.9550   13.5064 O.2     1  UNL1       -0.1499
     17 O          62.2701   84.3547   13.9271 O.2     1  UNL1       -0.1499
     18 C          63.4606   82.9042   12.9377 C.ar    1  UNL1        0.1354
     19 C          62.9654   81.6765   13.6432 C.ar    1  UNL1        0.0176
     20 C          62.6843   80.4259   12.8641 C.ar    1  UNL1       -0.0099
     21 C          62.1892   79.1983   13.5695 C.3     1  UNL1        0.0320
     22 C          62.8983   80.4030   11.3796 C.ar    1  UNL1        0.0546
     23 CL         62.6171   79.1524   10.6005 Cl      1  UNL1       -0.0825
     24 C          63.3934   81.6307   10.6742 C.ar    1  UNL1        0.0238
     25 C          63.6745   82.8813   11.4532 C.ar    1  UNL1        0.0773
     26 CL         64.1697   84.1090   10.7477 Cl      1  UNL1       -0.0808
     27 O          63.1502   90.7756   11.9660 O.3     1  UNL1       -0.4517
     28 C          64.2841   91.7529   11.8705 C.ar    1  UNL1        0.1652
     29 C          64.7032   92.2872   10.5330 C.ar    1  UNL1        0.1363
     30 N          65.8371   93.2645   10.4375 N.ar    1  UNL1       -0.2382
     31 C          66.5520   93.7074   11.6795 C.ar    1  UNL1        0.1104
     32 C          66.1330   93.1732   13.0170 C.ar    1  UNL1        0.0798
     33 CL         66.8479   93.6162   14.2591 Cl      1  UNL1       -0.0805
     34 C          64.9990   92.1959   13.1125 C.ar    1  UNL1        0.0521
@<TRIPOS>BOND
     1    11    12    1
     2    12     7    1
     3     7     8   am
     4     8     9    2
     5     8     1    1
     6     1     2   ar
     7     2     3   ar
     8     3    13    1
     9    13    15    1
    10    15    16    2
    11    15    17    2
    12    15    18    1
    13    18    19   ar
    14    19    20   ar
    15    20    21    1
    16    20    22   ar
    17    22    23    1
    18    22    24   ar
    19    24    25   ar
    20    25    26    1
    21     3     4   ar
    22     4     5   ar
    23     5     6   ar
    24     6    27    1
    25    27    28    1
    26    28    29   ar
    27    29    30   ar
    28    30    31   ar
    29    31    32   ar
    30    32    33    1
    31    32    34   ar
    32     6     1   ar
    33    34    28   ar
    34    25    18   ar
    35     7    10    1
    36    13    14    1
@<TRIPOS>MOLECULE
*****
 34 36 0 0 0
SMALL
GASTEIGER

@<TRIPOS>ATOM
      1 C          61.5138   88.1861   10.4334 C.ar    1  UNL1        0.0891
      2 C          61.7210   89.5464   11.0306 C.ar    1  UNL1        0.0234
      3 C          62.6488   89.7203   12.1964 C.ar    1  UNL1        0.0651
      4 C          63.3692   88.5340   12.7650 C.ar    1  UNL1        0.0190
      5 C          63.1620   87.1737   12.1678 C.ar    1  UNL1        0.0390
      6 C          62.2343   86.9998   11.0020 C.ar    1  UNL1        0.1497
      7 N          60.2097   89.1952    8.4256 N.am    1  UNL1       -0.3008
      8 C          60.5861   88.0122    9.2676 C.2     1  UNL1        0.2489
      9 O          60.0348   86.6554    8.9437 O.2     1  UNL1       -0.2700
     10 H          60.5716   90.0858    8.6382 H       1  UNL1        0.1497
     11 C          59.3986   89.9239    6.0674 C.3     1  UNL1        0.0230
     12 C          59.2820   89.0213    7.2598 C.3     1  UNL1        0.0898
     13 N          62.8560   91.0807   12.7936 N.pl3   1  UNL1       -0.2150
     14 H          62.1436   91.7577   12.7350 H       1  UNL1        0.1737
     15 S          64.1486   91.4095   13.4799 S.O2    1  UNL1        0.0744
     16 O          64.7305   91.8541   12.1709 O.2     1  UNL1       -0.1499
     17 O          63.5666   90.9648   14.7890 O.2     1  UNL1       -0.1499
     18 C          65.4412   91.7383   14.1663 C.ar    1  UNL1        0.1354
     19 C          66.7350   91.6461   13.4129 C.ar    1  UNL1        0.0176
     20 C          68.0276   91.9749   14.0992 C.ar    1  UNL1       -0.0099
     21 C          69.3214   91.8828   13.3459 C.3     1  UNL1        0.0320
     22 C          68.0264   92.3959   15.5390 C.ar    1  UNL1        0.0546
     23 CL         69.3189   92.7247   16.2253 Cl      1  UNL1       -0.0825
     24 C          66.7326   92.4880   16.2923 C.ar    1  UNL1        0.0238
     25 C          65.4400   92.1592   15.6060 C.ar    1  UNL1        0.0773
     26 CL         64.1461   92.2514   16.3594 Cl      1  UNL1       -0.0808
     27 O          62.0271   85.6394   10.4049 O.3     1  UNL1       -0.4517
     28 C          62.8167   84.4694   10.9123 C.ar    1  UNL1        0.1652
     29 C          63.8224   83.8007   10.0225 C.ar    1  UNL1        0.1363
     30 N          64.6120   82.6307   10.5299 N.ar    1  UNL1       -0.2382
     31 C          64.3960   82.1293   11.9270 C.ar    1  UNL1        0.1104
     32 C          63.3904   82.7979   12.8168 C.ar    1  UNL1        0.0798
     33 CL         63.1744   82.2965   14.2139 Cl      1  UNL1       -0.0805
     34 C          62.6007   83.9680   12.3094 C.ar    1  UNL1        0.0521
@<TRIPOS>BOND
     1    11    12    1
     2    12     7    1
     3     7     8   am
     4     8     9    2
     5     8     1    1
     6     1     2   ar
     7     2     3   ar
     8     3    13    1
     9    13    15    1
    10    15    16    2
    11    15    17    2
    12    15    18    1
    13    18    19   ar
    14    19    20   ar
    15    20    21    1
    16    20    22   ar
    17    22    23    1
    18    22    24   ar
    19    24    25   ar
    20    25    26    1
    21     3     4   ar
    22     4     5   ar
    23     5     6   ar
    24     6    27    1
    25    27    28    1
    26    28    29   ar
    27    29    30   ar
    28    30    31   ar
    29    31    32   ar
    30    32    33    1
    31    32    34   ar
    32     6     1   ar
    33    34    28   ar
    34    25    18   ar
    35     7    10    1
    36    13    14    1
@<TRIPOS>MOLECULE
*****
 34 36 0 0 0
SMALL
GASTEIGER

@<TRIPOS>ATOM
      1 C          63.6388   87.8554   13.3703 C.ar    1  UNL1        0.0891
      2 C          64.2964   89.1451   13.7627 C.ar    1  UNL1        0.0234
      3 C          64.0629   90.3839   12.9497 C.ar    1  UNL1        0.0651
      4 C          63.1718   90.3328   11.7442 C.ar    1  UNL1        0.0190
      5 C          62.5142   89.0431   11.3517 C.ar    1  UNL1        0.0390
      6 C          62.7477   87.8043   12.1648 C.ar    1  UNL1        0.1497
      7 N          64.1403   85.3094   13.4984 N.am    1  UNL1       -0.3008
      8 C          63.8723   86.6167   14.1833 C.2     1  UNL1        0.2489
      9 O          63.8378   86.6852   15.6813 O.2     1  UNL1       -0.2700
     10 H          64.1629   85.2644   12.5152 H       1  UNL1        0.1497
     11 C          63.2440   83.1178   14.5677 C.3     1  UNL1        0.0230
     12 C          64.3738   84.0707   14.3114 C.3     1  UNL1        0.0898
     13 N          64.7205   91.6737   13.3422 N.pl3   1  UNL1       -0.2150
     14 H          64.7363   91.9506   14.2868 H       1  UNL1        0.1737
     15 S          65.3541   92.5414   12.2955 S.O2    1  UNL1        0.0744
     16 O          66.0573   93.3206   13.3671 O.2     1  UNL1       -0.1499
     17 O          64.6508   91.7622   11.2239 O.2     1  UNL1       -0.1499
     18 C          65.9876   93.4091   11.2488 C.ar    1  UNL1        0.1354
     19 C          65.3343   94.6984   10.8474 C.ar    1  UNL1        0.0176
     20 C          65.9678   95.5662    9.8006 C.ar    1  UNL1       -0.0099
     21 C          65.3146   96.8554    9.3992 C.3     1  UNL1        0.0320
     22 C          67.2547   95.1446    9.1553 C.ar    1  UNL1        0.0546
     23 CL         67.8883   96.0124    8.1086 Cl      1  UNL1       -0.0825
     24 C          67.9080   93.8554    9.5567 C.ar    1  UNL1        0.0238
     25 C          67.2744   92.9877   10.6034 C.ar    1  UNL1        0.0773
     26 CL         67.9277   91.6984   11.0049 Cl      1  UNL1       -0.0808
     27 O          62.0901   86.5145   11.7722 O.3     1  UNL1       -0.4517
     28 C          61.8389   86.2108   10.3250 C.ar    1  UNL1        0.1652
     29 C          62.8741   85.4812    9.5211 C.ar    1  UNL1        0.1363
     30 N          62.6230   85.1774    8.0738 N.ar    1  UNL1       -0.2382
     31 C          61.3367   85.6033    7.4304 C.ar    1  UNL1        0.1104
     32 C          60.3015   86.3328    8.2341 C.ar    1  UNL1        0.0798
     33 CL         59.0152   86.7587    7.5906 Cl      1  UNL1       -0.0805
     34 C          60.5526   86.6366    9.6815 C.ar    1  UNL1        0.0521
@<TRIPOS>BOND
     1    11    12    1
     2    12     7    1
     3     7     8   am
     4     8     9    2
     5     8     1    1
     6     1     2   ar
     7     2     3   ar
     8     3    13    1
     9    13    15    1
    10    15    16    2
    11    15    17    2
    12    15    18    1
    13    18    19   ar
    14    19    20   ar
    15    20    21    1
    16    20    22   ar
    17    22    23    1
    18    22    24   ar
    19    24    25   ar
    20    25    26    1
    21     3     4   ar
    22     4     5   ar
    23     5     6   ar
    24     6    27    1
    25    27    28    1
    26    28    29   ar
    27    29    30   ar
    28    30    31   ar
    29    31    32   ar
    30    32    33    1
    31    32    34   ar
    32     6     1   ar
    33    34    28   ar
    34    25    18   ar
    35     7    10    1
    36    13    14    1
@<TRIPOS>MOLECULE
*****
 34 36 0 0 0
SMALL
GASTEIGER

@<TRIPOS>ATOM
      1 C          62.9802   87.1696   12.1451 C.ar    1  UNL1        0.0891
      2 C          63.3543   88.3741   12.9571 C.ar    1  UNL1        0.0234
      3 C          64.0135   88.2024   14.2936 C.ar    1  UNL1        0.0651
      4 C          64.2987   86.8264   14.8180 C.ar    1  UNL1        0.0190
      5 C          63.9246   85.6219   14.0060 C.ar    1  UNL1        0.0390
      6 C          63.2654   85.7936   12.6696 C.ar    1  UNL1        0.1497
      7 N          61.4143   86.2713   10.2768 N.am    1  UNL1       -0.3008
      8 C          62.3210   87.3413   10.8087 C.2     1  UNL1        0.2489
      9 O          62.5685   88.5829   10.0043 O.2     1  UNL1       -0.2700
     10 H          61.2519   85.4564   10.8047 H       1  UNL1        0.1497
     11 C          59.3967   87.0728    8.8495 C.3     1  UNL1        0.0230
     12 C          60.7551   86.4430    8.9404 C.3     1  UNL1        0.0898
     13 N          64.3875   89.4070   15.1056 N.pl3   1  UNL1       -0.2150
     14 H          64.3170   89.3802   16.0872 H       1  UNL1        0.1737
     15 S          64.8690   90.6523   14.4219 S.O2    1  UNL1        0.0744
     16 O          63.4969   91.2470   14.5388 O.2     1  UNL1       -0.1499
     17 O          66.2411   90.0576   14.3051 O.2     1  UNL1       -0.1499
     18 C          65.3505   91.8976   13.7383 C.ar    1  UNL1        0.1354
     19 C          65.0842   92.1013   12.2762 C.ar    1  UNL1        0.0176
     20 C          65.5656   93.3466   11.5926 C.ar    1  UNL1       -0.0099
     21 C          65.2993   93.5504   10.1305 C.3     1  UNL1        0.0320
     22 C          66.3135   94.3882   12.3710 C.ar    1  UNL1        0.0546
     23 CL         66.7950   95.6336   11.6874 Cl      1  UNL1       -0.0825
     24 C          66.5798   94.1845   13.8330 C.ar    1  UNL1        0.0238
     25 C          66.0983   92.9392   14.5167 C.ar    1  UNL1        0.0773
     26 CL         66.3646   92.7354   15.9787 Cl      1  UNL1       -0.0808
     27 O          62.8914   84.5890   11.8576 O.3     1  UNL1       -0.4517
     28 C          62.7463   83.2521   12.5221 C.ar    1  UNL1        0.1652
     29 C          62.5083   83.1715   14.0009 C.ar    1  UNL1        0.1363
     30 N          62.3632   81.8346   14.6654 N.ar    1  UNL1       -0.2382
     31 C          62.4560   80.5783   13.8511 C.ar    1  UNL1        0.1104
     32 C          62.6939   80.6589   12.3724 C.ar    1  UNL1        0.0798
     33 CL         62.7868   79.4026   11.5581 Cl      1  UNL1       -0.0805
     34 C          62.8391   81.9958   11.7078 C.ar    1  UNL1        0.0521
@<TRIPOS>BOND
     1    11    12    1
     2    12     7    1
     3     7     8   am
     4     8     9    2
     5     8     1    1
     6     1     2   ar
     7     2     3   ar
     8     3    13    1
     9    13    15    1
    10    15    16    2
    11    15    17    2
    12    15    18    1
    13    18    19   ar
    14    19    20   ar
    15    20    21    1
    16    20    22   ar
    17    22    23    1
    18    22    24   ar
    19    24    25   ar
    20    25    26    1
    21     3     4   ar
    22     4     5   ar
    23     5     6   ar
    24     6    27    1
    25    27    28    1
    26    28    29   ar
    27    29    30   ar
    28    30    31   ar
    29    31    32   ar
    30    32    33    1
    31    32    34   ar
    32     6     1   ar
    33    34    28   ar
    34    25    18   ar
    35     7    10    1
    36    13    14    1
@<TRIPOS>MOLECULE
*****
 34 36 0 0 0
SMALL
GASTEIGER

@<TRIPOS>ATOM
      1 C          61.7865   86.4497    9.7492 C.ar    1  UNL1        0.0891
      2 C          61.6745   87.9076   10.0838 C.ar    1  UNL1        0.0234
      3 C          62.2458   88.4282   11.3693 C.ar    1  UNL1        0.0651
      4 C          62.9292   87.4909   12.3202 C.ar    1  UNL1        0.0190
      5 C          63.0412   86.0330   11.9857 C.ar    1  UNL1        0.0390
      6 C          62.4699   85.5124   10.7001 C.ar    1  UNL1        0.1497
      7 N          62.0714   85.1190    7.5361 N.am    1  UNL1       -0.3008
      8 C          61.2152   85.9292    8.4636 C.2     1  UNL1        0.2489
      9 O          59.7877   86.2188    8.1057 O.2     1  UNL1       -0.2700
     10 H          63.0084   84.9289    7.7710 H       1  UNL1        0.1497
     11 C          62.4126   84.2375    5.1160 C.3     1  UNL1        0.0230
     12 C          61.5001   84.5984    6.2505 C.3     1  UNL1        0.0898
     13 N          62.1337   89.8861   11.7039 N.pl3   1  UNL1       -0.2150
     14 H          61.3004   90.3731   11.5095 H       1  UNL1        0.1737
     15 S          63.2912   90.6020   12.3345 S.O2    1  UNL1        0.0744
     16 O          62.6573   90.4381   13.6841 O.2     1  UNL1       -0.1499
     17 O          63.9250   90.7660   10.9849 O.2     1  UNL1       -0.1499
     18 C          64.4487   91.3179   12.9651 C.ar    1  UNL1        0.1354
     19 C          64.9162   92.6280   12.4037 C.ar    1  UNL1        0.0176
     20 C          66.0737   93.3439   13.0343 C.ar    1  UNL1       -0.0099
     21 C          66.5413   94.6539   12.4729 C.3     1  UNL1        0.0320
     22 C          66.7636   92.7497   14.2264 C.ar    1  UNL1        0.0546
     23 CL         67.9211   93.4657   14.8571 Cl      1  UNL1       -0.0825
     24 C          66.2961   91.4397   14.7878 C.ar    1  UNL1        0.0238
     25 C          65.1386   90.7238   14.1572 C.ar    1  UNL1        0.0773
     26 CL         64.6710   89.4138   14.7186 Cl      1  UNL1       -0.0808
     27 O          62.5820   84.0545   10.3656 O.3     1  UNL1       -0.4517
     28 C          62.9737   83.0694   11.4268 C.ar    1  UNL1        0.1652
     29 C          64.4114   82.6733   11.5886 C.ar    1  UNL1        0.1363
     30 N          64.8031   81.6883   12.6498 N.ar    1  UNL1       -0.2382
     31 C          63.7571   81.0993   13.5492 C.ar    1  UNL1        0.1104
     32 C          62.3195   81.4953   13.3875 C.ar    1  UNL1        0.0798
     33 CL         61.2735   80.9063   14.2869 Cl      1  UNL1       -0.0805
     34 C          61.9277   82.4804   12.3262 C.ar    1  UNL1        0.0521
@<TRIPOS>BOND
     1    11    12    1
     2    12     7    1
     3     7     8   am
     4     8     9    2
     5     8     1    1
     6     1     2   ar
     7     2     3   ar
     8     3    13    1
     9    13    15    1
    10    15    16    2
    11    15    17    2
    12    15    18    1
    13    18    19   ar
    14    19    20   ar
    15    20    21    1
    16    20    22   ar
    17    22    23    1
    18    22    24   ar
    19    24    25   ar
    20    25    26    1
    21     3     4   ar
    22     4     5   ar
    23     5     6   ar
    24     6    27    1
    25    27    28    1
    26    28    29   ar
    27    29    30   ar
    28    30    31   ar
    29    31    32   ar
    30    32    33    1
    31    32    34   ar
    32     6     1   ar
    33    34    28   ar
    34    25    18   ar
    35     7    10    1
    36    13    14    1
