@<TRIPOS>MOLECULE
*****
 31 35 0 0 0
SMALL
GASTEIGER

@<TRIPOS>ATOM
      1 C          64.5503   96.1991   -5.8217 C.2     1  UNL1        0.4056
      2 O          63.7346   96.0725   -7.0741 O.2     1  UNL1       -0.2262
      3 N          64.0182   95.6692   -4.5233 N.am    1  UNL1       -0.2345
      4 C          62.6619   95.0318   -4.5874 C.3     1  UNL1        0.1254
      5 C          61.8650   94.4145   -3.4765 C.ar    1  UNL1        0.0148
      6 C          60.5506   93.8884   -3.9718 C.ar    1  UNL1        0.0102
      7 C          59.5988   93.2299   -3.0175 C.ar    1  UNL1        0.0575
      8 CL         58.2843   92.7037   -3.5127 Cl      1  UNL1       -0.0823
      9 C          59.9616   93.0975   -1.5681 C.ar    1  UNL1        0.0129
     10 C          61.2761   93.6236   -1.0729 C.ar    1  UNL1        0.0182
     11 C          62.2278   94.2821   -2.0271 C.ar    1  UNL1        0.0639
     12 N          63.4770   94.7344   -1.3306 N.ar    1  UNL1       -0.2796
     13 C          64.6719   95.4307   -1.9114 C.ar    1  UNL1        0.1673
     14 N          65.6543   95.6678   -0.8032 N.ar    1  UNL1       -0.1315
     15 N          65.0667   95.1181    0.4627 N.ar    1  UNL1       -0.1333
     16 C          63.7210   94.5412    0.1368 C.ar    1  UNL1        0.1465
     17 C          64.9127   95.8467   -3.3324 C.3     1  UNL1        0.1632
     18 C          62.7839   93.8862    1.1076 C.3     1  UNL1        0.0625
     19 C          61.5266   94.5887    1.5269 C.3     1  UNL1        0.0291
     20 C          60.5895   93.9337    2.4978 C.3     1  UNL1        0.0926
     21 N          60.9095   92.5761    3.0495 N.pl3   1  UNL1       -0.2932
     22 C          62.1668   91.8735    2.6303 C.3     1  UNL1        0.0926
     23 C          63.1039   92.5285    1.6594 C.3     1  UNL1        0.0291
     24 C          59.9724   91.9210    4.0204 C.ar    1  UNL1        0.1317
     25 C          60.4845   90.8793    4.9705 C.ar    1  UNL1        0.0343
     26 C          59.5473   90.2242    5.9414 C.ar    1  UNL1        0.0045
     27 C          58.0982   90.6109    5.9622 C.ar    1  UNL1        0.0208
     28 C          57.5861   91.6526    5.0122 C.ar    1  UNL1        0.1003
     29 N          58.5233   92.3077    4.0412 N.ar    1  UNL1       -0.2292
     30 C          67.0209   96.2113   -6.6256 C.3     1  UNL1        0.2573
     31 O          65.8983   96.8557   -5.8677 O.3     1  UNL1       -0.4304
@<TRIPOS>BOND
     1    30    31    1
     2    31     1    1
     3     1     2    2
     4     1     3   am
     5     3     4    1
     6     4     5    1
     7     5     6   ar
     8     6     7   ar
     9     7     8    1
    10     7     9   ar
    11     9    10   ar
    12    10    11   ar
    13    11    12    1
    14    12    13   ar
    15    13    14   ar
    16    14    15   ar
    17    15    16   ar
    18    16    18    1
    19    18    19    1
    20    19    20    1
    21    20    21    1
    22    21    24    1
    23    24    25   ar
    24    25    26   ar
    25    26    27   ar
    26    27    28   ar
    27    28    29   ar
    28    21    22    1
    29    22    23    1
    30    13    17    1
    31    17     3    1
    32    11     5   ar
    33    16    12   ar
    34    23    18    1
    35    29    24   ar
