@<TRIPOS>MOLECULE
*****
 38 44 0 0 0
SMALL
GASTEIGER

@<TRIPOS>ATOM
      1 C          63.6407   86.7351   14.8028 C.2     1  UNL1        0.0357
      2 C          63.0548   86.5118   16.1654 C.2     1  UNL1        0.0021
      3 C          62.8964   87.6646   17.1118 C.2     1  UNL1        0.0205
      4 C          63.3238   89.0409   16.6956 C.2     1  UNL1        0.1007
      5 N          63.2904   90.3606   17.4078 N.2     1  UNL1       -0.1483
      6 N          63.8557   91.3996   16.4854 N.2     1  UNL1       -0.1483
      7 C          64.2385   90.7220   15.2030 C.2     1  UNL1        0.1007
      8 C          63.9097   89.2642   15.3329 C.2     1  UNL1        0.0211
      9 C          64.0682   88.1114   14.3865 C.3     1  UNL1        0.0604
     10 C          64.8437   91.3856   14.0016 C.ar    1  UNL1        0.0192
     11 C          64.1411   91.3249   12.6777 C.ar    1  UNL1        0.0028
     12 C          64.7463   91.9885   11.4764 C.ar    1  UNL1        0.0146
     13 C          66.0541   92.7129   11.5988 C.ar    1  UNL1        0.0479
     14 C          66.7566   92.7736   12.9227 C.ar    1  UNL1        0.0146
     15 C          66.1514   92.1100   14.1241 C.ar    1  UNL1        0.0028
     16 N          66.6593   93.3765   10.3974 N.pl3   1  UNL1       -0.3058
     17 C          67.7232   92.6728    9.6082 C.3     1  UNL1        0.1024
     18 C          66.8760   92.4111   10.8180 C.3     1  UNL1        0.0241
     19 C          65.9969   93.6069   11.0357 C.3     1  UNL1        0.0241
     20 C          66.2006   94.7439    9.9853 C.3     1  UNL1        0.1024
     21 C          66.8058   95.4075    8.7839 C.3     1  UNL1        0.1618
     22 O          67.8697   94.7037    7.9947 O.3     1  UNL1       -0.3503
     23 C          68.3284   93.3364    8.4068 C.3     1  UNL1        0.1618
     24 O          65.0708   84.7866   13.8497 O.2     1  UNL1       -0.2705
     25 C          63.7992   85.5822   13.8563 C.2     1  UNL1        0.2424
     26 N          62.6861   85.2249   12.9165 N.am    1  UNL1       -0.2989
     27 H          61.8515   85.7471   12.9208 H       1  UNL1        0.1500
     28 C          62.8446   84.0720   11.9700 C.3     1  UNL1        0.0964
     29 C          62.6529   82.6674   12.4603 C.ar    1  UNL1        0.0230
     30 C          62.9965   81.5092   11.5710 C.ar    1  UNL1       -0.0005
     31 C          62.8048   80.1046   12.0613 C.ar    1  UNL1       -0.0001
     32 C          62.2695   79.8582   13.4408 C.ar    1  UNL1        0.0023
     33 C          61.9260   81.0163   14.3299 C.ar    1  UNL1        0.0294
     34 C          62.1176   82.4209   13.8396 C.ar    1  UNL1        0.1377
     35 F          61.7741   83.5791   14.7288 F       1  UNL1       -0.2045
     36 C          63.1947   84.3237   10.5334 C.3     1  UNL1        0.0223
     37 C          63.0459   85.1402    9.2839 C.3     1  UNL1        0.0020
     38 C          63.9499   83.9433    9.2945 C.3     1  UNL1        0.0020
@<TRIPOS>BOND
     1    24    25    2
     2    25    26   am
     3    28    26    1
     4    28    29    1
     5    29    30   ar
     6    30    31   ar
     7    31    32   ar
     8    32    33   ar
     9    33    34   ar
    10    34    35    1
    11    28    36    1
    12    36    37    1
    13    37    38    1
    14    25     1    1
    15     1     2    2
    16     2     3    1
    17     3     4    2
    18     4     5    1
    19     5     6    2
    20     6     7    1
    21     7    10    1
    22    10    11   ar
    23    11    12   ar
    24    12    13   ar
    25    13    16    1
    26    16    17    1
    27    17    18    1
    28    18    19    1
    29    19    20    1
    30    20    21    1
    31    21    22    1
    32    22    23    1
    33    13    14   ar
    34    14    15   ar
    35     7     8    2
    36     8     9    1
    37    34    29   ar
    38    38    36    1
    39     9     1    1
    40     8     4    1
    41    15    10   ar
    42    20    16    1
    43    23    17    1
    44    26    27    1
@<TRIPOS>MOLECULE
*****
 38 44 0 0 0
SMALL
GASTEIGER

@<TRIPOS>ATOM
      1 C          63.6306   86.9144   15.1939 C.2     1  UNL1        0.0357
      2 C          63.0254   86.7983   16.5615 C.2     1  UNL1        0.0021
      3 C          62.8769   88.0180   17.4218 C.2     1  UNL1        0.0205
      4 C          63.3334   89.3538   16.9146 C.2     1  UNL1        0.1007
      5 N          63.3155   90.7211   17.5312 N.2     1  UNL1       -0.1483
      6 N          63.9096   91.6823   16.5447 N.2     1  UNL1       -0.1483
      7 C          64.2946   90.9089   15.3184 C.2     1  UNL1        0.1007
      8 C          63.9385   89.4699   15.5471 C.2     1  UNL1        0.0211
      9 C          64.0871   88.2502   14.6867 C.3     1  UNL1        0.0604
     10 C          64.9251   91.4753   14.0808 C.ar    1  UNL1        0.0192
     11 C          64.2112   91.3809   12.7649 C.ar    1  UNL1        0.0028
     12 C          64.8416   91.9472   11.5273 C.ar    1  UNL1        0.0146
     13 C          66.1860   92.6079   11.6054 C.ar    1  UNL1        0.0479
     14 C          66.8999   92.7022   12.9212 C.ar    1  UNL1        0.0146
     15 C          66.2695   92.1359   14.1588 C.ar    1  UNL1        0.0028
     16 N          66.8164   93.1742   10.3677 N.pl3   1  UNL1       -0.3058
     17 C          67.8907   92.4073    9.6550 C.3     1  UNL1        0.1024
     18 C          67.0202   92.2434   10.8656 C.3     1  UNL1        0.0241
     19 C          66.1439   93.4559   10.9739 C.3     1  UNL1        0.0241
     20 C          66.3727   94.5074    9.8428 C.3     1  UNL1        0.1024
     21 C          67.0031   95.0737    8.6051 C.3     1  UNL1        0.1618
     22 O          68.0774   94.3068    7.8924 O.3     1  UNL1       -0.3503
     23 C          68.5211   92.9736    8.4174 C.3     1  UNL1        0.1618
     24 O          65.1460   85.2001   13.9632 O.2     1  UNL1       -0.2705
     25 C          63.7792   85.6947   14.3335 C.2     1  UNL1        0.2424
     26 N          62.5610   84.9697   13.8433 N.am    1  UNL1       -0.2989
     27 H          61.6639   85.2944   14.0863 H       1  UNL1        0.1500
     28 C          62.7096   83.7500   12.9829 C.3     1  UNL1        0.0964
     29 C          63.0290   83.8954   11.5245 C.ar    1  UNL1        0.0230
     30 C          63.9678   82.9307   10.8626 C.ar    1  UNL1       -0.0005
     31 C          64.2873   83.0760    9.4042 C.ar    1  UNL1       -0.0001
     32 C          63.6679   84.1861    8.6078 C.ar    1  UNL1        0.0023
     33 C          62.7292   85.1507    9.2697 C.ar    1  UNL1        0.0294
     34 C          62.4097   85.0054   10.7281 C.ar    1  UNL1        0.1377
     35 F          61.4710   85.9700   11.3900 F       1  UNL1       -0.2045
     36 C          62.5387   82.3850   13.5808 C.3     1  UNL1        0.0223
     37 C          63.0944   81.0300   13.9051 C.3     1  UNL1        0.0020
     38 C          61.6871   81.3757   14.2921 C.3     1  UNL1        0.0020
@<TRIPOS>BOND
     1    24    25    2
     2    25    26   am
     3    28    26    1
     4    28    29    1
     5    29    30   ar
     6    30    31   ar
     7    31    32   ar
     8    32    33   ar
     9    33    34   ar
    10    34    35    1
    11    28    36    1
    12    36    37    1
    13    37    38    1
    14    25     1    1
    15     1     2    2
    16     2     3    1
    17     3     4    2
    18     4     5    1
    19     5     6    2
    20     6     7    1
    21     7    10    1
    22    10    11   ar
    23    11    12   ar
    24    12    13   ar
    25    13    16    1
    26    16    17    1
    27    17    18    1
    28    18    19    1
    29    19    20    1
    30    20    21    1
    31    21    22    1
    32    22    23    1
    33    13    14   ar
    34    14    15   ar
    35     7     8    2
    36     8     9    1
    37    34    29   ar
    38    38    36    1
    39     9     1    1
    40     8     4    1
    41    15    10   ar
    42    20    16    1
    43    23    17    1
    44    26    27    1
