@<TRIPOS>MOLECULE
*****
 32 34 0 0 0
SMALL
GASTEIGER

@<TRIPOS>ATOM
      1 C          63.6228   87.1143   16.0674 C.3     1  UNL1        0.1812
      2 O          64.2258   87.2674   14.7025 O.3     1  UNL1       -0.3784
      3 H          64.5952   86.4179   14.4151 H       1  UNL1        0.2106
      4 C          63.0199   86.9611   17.4323 C.3     1  UNL1        0.4197
      5 F          62.4169   86.8079   18.7972 F       1  UNL1       -0.1676
      6 F          62.0672   88.0816   17.1372 F       1  UNL1       -0.1676
      7 F          63.9725   85.8407   17.7274 F       1  UNL1       -0.1676
      8 C          64.0156   85.6666   16.0785 C.3     1  UNL1        0.0398
      9 C          63.6869   84.7913   14.9056 C.3     1  UNL1        0.0212
     10 C          62.2498   84.7566   15.3342 C.3     1  UNL1        0.0044
     11 C          65.1239   84.8260   14.4769 C.3     1  UNL1        0.0044
     12 C          62.9966   86.0255   12.2598 C.3     1  UNL1        0.0307
     13 C          63.0130   84.5331   12.4098 C.ar    1  UNL1       -0.0257
     14 C          62.6842   83.6578   11.2368 C.ar    1  UNL1       -0.0023
     15 C          62.7006   82.1654   11.3868 C.ar    1  UNL1        0.0293
     16 C          63.0458   81.5483   12.7097 C.ar    1  UNL1        0.1398
     17 F          63.0622   80.0559   12.8596 F       1  UNL1       -0.2042
     18 C          63.3745   82.4236   13.8826 C.ar    1  UNL1        0.0250
     19 C          63.3581   83.9160   13.7326 C.ar    1  UNL1       -0.0244
     20 C          63.2301   88.5619   16.0563 C.3     1  UNL1        0.0811
     21 C          63.6104   89.4333   14.8962 C.2     1  UNL1        0.0614
     22 C          64.7430   90.4165   14.8661 C.2     1  UNL1        0.0163
     23 C          64.7576   91.0654   13.5138 C.2     1  UNL1        0.0264
     24 C          65.6488   92.1112   12.9119 C.2     1  UNL1        0.0903
     25 C          65.4164   92.5748   11.5044 C.2     1  UNL1        0.3193
     26 N          64.2930   91.9927   10.6988 N.2     1  UNL1       -0.0585
     27 C          63.4019   90.9470   11.3006 C.3     1  UNL1        0.3085
     28 C          63.6341   90.4833   12.7081 C.2     1  UNL1        0.1121
     29 N          62.9251   89.4746   13.5625 N.2     1  UNL1       -0.2495
     30 N          66.3076   93.6206   10.9025 N.pl3   1  UNL1       -0.1832
     31 C          67.2934   93.2429    9.8368 C.3     1  UNL1        0.2536
     32 C          66.2130   95.0439   11.3662 C.3     1  UNL1        0.2536
@<TRIPOS>BOND
     1    12    13    1
     2    13    14   ar
     3    14    15   ar
     4    15    16   ar
     5    16    17    1
     6    16    18   ar
     7    18    19   ar
     8    19     9    1
     9     9    10    1
    10     9    11    1
    11     9     8    1
    12     8     1    1
    13     1     2    1
    14     1    20    1
    15    20    21    1
    16    21    22    2
    17    22    23    1
    18    23    24    2
    19    24    25    1
    20    25    30    1
    21    30    31    1
    22    30    32    1
    23    25    26    2
    24    26    27    1
    25    27    28    1
    26    28    29    2
    27     1     4    1
    28     4     5    1
    29     4     6    1
    30     4     7    1
    31    19    13   ar
    32    29    21    1
    33    28    23    1
    34     2     3    1
@<TRIPOS>MOLECULE
*****
 32 34 0 0 0
SMALL
GASTEIGER

@<TRIPOS>ATOM
      1 C          61.3821   89.1401   10.4265 C.3     1  UNL1        0.1812
      2 O          62.5839   88.4132    9.9002 O.3     1  UNL1       -0.3784
      3 H          62.4806   87.4615   10.0571 H       1  UNL1        0.2106
      4 C          60.1802   89.8670   10.9529 C.3     1  UNL1        0.4197
      5 F          58.9783   90.5940   11.4794 F       1  UNL1       -0.1676
      6 F          59.7565   90.1831    9.5491 F       1  UNL1       -0.1676
      7 F          60.6039   89.5510   12.3567 F       1  UNL1       -0.1676
      8 C          60.7876   87.8362   10.8701 C.3     1  UNL1        0.0398
      9 C          61.6279   86.5937   10.8801 C.3     1  UNL1        0.0212
     10 C          60.7426   85.9865    9.8325 C.3     1  UNL1        0.0044
     11 C          62.5133   87.2009   11.9277 C.3     1  UNL1        0.0044
     12 C          62.8909   85.6165    8.3404 C.3     1  UNL1        0.0307
     13 C          63.0997   84.8626    9.6204 C.ar    1  UNL1       -0.0257
     14 C          63.9400   83.6201    9.6304 C.ar    1  UNL1       -0.0023
     15 C          64.1488   82.8662   10.9102 C.ar    1  UNL1        0.0293
     16 C          63.5173   83.3549   12.1801 C.ar    1  UNL1        0.1398
     17 F          63.7262   82.6010   13.4600 F       1  UNL1       -0.2042
     18 C          62.6770   84.5974   12.1701 C.ar    1  UNL1        0.0250
     19 C          62.4682   85.3512   10.8902 C.ar    1  UNL1       -0.0244
     20 C          61.9764   90.4439    9.9830 C.3     1  UNL1        0.0811
     21 C          63.1328   91.0349   10.7337 C.2     1  UNL1        0.0614
     22 C          63.4942   90.7517   12.1617 C.2     1  UNL1        0.0163
     23 C          64.7156   91.5546   12.4988 C.2     1  UNL1        0.0264
     24 C          65.5203   91.6767   13.7587 C.2     1  UNL1        0.0903
     25 C          66.7185   92.5783   13.7989 C.2     1  UNL1        0.3193
     26 N          67.1119   93.3577   12.5793 N.2     1  UNL1       -0.0585
     27 C          66.3072   93.2356   11.3193 C.3     1  UNL1        0.3085
     28 C          65.1090   92.3341   11.2790 C.2     1  UNL1        0.1121
     29 N          64.1308   92.0129   10.1881 N.2     1  UNL1       -0.2495
     30 N          67.5233   92.7004   15.0589 N.pl3   1  UNL1       -0.1832
     31 C          66.8330   92.7222   16.3905 C.3     1  UNL1        0.2536
     32 C          69.0182   92.8006   14.9873 C.3     1  UNL1        0.2536
@<TRIPOS>BOND
     1    12    13    1
     2    13    14   ar
     3    14    15   ar
     4    15    16   ar
     5    16    17    1
     6    16    18   ar
     7    18    19   ar
     8    19     9    1
     9     9    10    1
    10     9    11    1
    11     9     8    1
    12     8     1    1
    13     1     2    1
    14     1    20    1
    15    20    21    1
    16    21    22    2
    17    22    23    1
    18    23    24    2
    19    24    25    1
    20    25    30    1
    21    30    31    1
    22    30    32    1
    23    25    26    2
    24    26    27    1
    25    27    28    1
    26    28    29    2
    27     1     4    1
    28     4     5    1
    29     4     6    1
    30     4     7    1
    31    19    13   ar
    32    29    21    1
    33    28    23    1
    34     2     3    1
@<TRIPOS>MOLECULE
*****
 32 34 0 0 0
SMALL
GASTEIGER

@<TRIPOS>ATOM
      1 C          63.6468   87.0051   15.8688 C.3     1  UNL1        0.1812
      2 O          64.2075   87.1977   14.4909 O.3     1  UNL1       -0.3784
      3 H          64.4936   86.3416   14.1357 H       1  UNL1        0.2106
      4 C          63.0862   86.8125   17.2466 C.3     1  UNL1        0.4197
      5 F          62.5255   86.6199   18.6246 F       1  UNL1       -0.1676
      6 F          63.8987   85.5611   17.4023 F       1  UNL1       -0.1676
      7 F          62.2738   88.0637   17.0910 F       1  UNL1       -0.1676
      8 C          63.9179   85.5328   15.7733 C.3     1  UNL1        0.0398
      9 C          63.7489   84.8225   14.4630 C.3     1  UNL1        0.0212
     10 C          65.2362   84.8280   14.2682 C.3     1  UNL1        0.0044
     11 C          62.2616   84.8171   14.6578 C.3     1  UNL1        0.0044
     12 C          63.6246   81.8260   14.3862 C.3     1  UNL1        0.0307
     13 C          63.5177   82.6140   13.1143 C.ar    1  UNL1       -0.0257
     14 C          63.3487   81.9037   11.8040 C.ar    1  UNL1       -0.0023
     15 C          63.2418   82.6916   10.5321 C.ar    1  UNL1        0.0293
     16 C          63.3040   84.1899   10.5704 C.ar    1  UNL1        0.1398
     17 F          63.1971   84.9777    9.2985 F       1  UNL1       -0.2042
     18 C          63.4730   84.9002   11.8807 C.ar    1  UNL1        0.0250
     19 C          63.5799   84.1122   13.1527 C.ar    1  UNL1       -0.0244
     20 C          63.3757   88.4772   15.9642 C.3     1  UNL1        0.0811
     21 C          63.7153   89.3785   14.8143 C.2     1  UNL1        0.0614
     22 C          64.8687   90.3358   14.7550 C.2     1  UNL1        0.0163
     23 C          64.8274   91.0296   13.4258 C.2     1  UNL1        0.0264
     24 C          65.7109   92.0744   12.8111 C.2     1  UNL1        0.0903
     25 C          65.4155   92.5907   11.4340 C.2     1  UNL1        0.3193
     26 N          64.2367   92.0623   10.6717 N.2     1  UNL1       -0.0585
     27 C          63.3532   91.0176   11.2865 C.3     1  UNL1        0.3085
     28 C          63.6485   90.5012   12.6635 C.2     1  UNL1        0.1121
     29 N          62.9612   89.4807   13.5217 N.2     1  UNL1       -0.2495
     30 N          66.2991   93.6354   10.8192 N.pl3   1  UNL1       -0.1832
     31 C          67.3157   93.2453    9.7875 C.3     1  UNL1        0.2536
     32 C          66.1660   95.0701   11.2361 C.3     1  UNL1        0.2536
@<TRIPOS>BOND
     1    12    13    1
     2    13    14   ar
     3    14    15   ar
     4    15    16   ar
     5    16    17    1
     6    16    18   ar
     7    18    19   ar
     8    19     9    1
     9     9    10    1
    10     9    11    1
    11     9     8    1
    12     8     1    1
    13     1     2    1
    14     1    20    1
    15    20    21    1
    16    21    22    2
    17    22    23    1
    18    23    24    2
    19    24    25    1
    20    25    30    1
    21    30    31    1
    22    30    32    1
    23    25    26    2
    24    26    27    1
    25    27    28    1
    26    28    29    2
    27     1     4    1
    28     4     5    1
    29     4     6    1
    30     4     7    1
    31    19    13   ar
    32    29    21    1
    33    28    23    1
    34     2     3    1
@<TRIPOS>MOLECULE
*****
 32 34 0 0 0
SMALL
GASTEIGER

@<TRIPOS>ATOM
      1 C          61.9269   86.9291   10.4449 C.3     1  UNL1        0.1812
      2 O          63.0559   87.0109   11.4290 O.3     1  UNL1       -0.3784
      3 H          63.6112   86.2195   11.3505 H       1  UNL1        0.2106
      4 C          60.7978   86.8473    9.4607 C.3     1  UNL1        0.4197
      5 F          59.6688   86.7655    8.4765 F       1  UNL1       -0.1676
      6 F          59.8718   87.4547   10.4725 F       1  UNL1       -0.1676
      7 F          61.7238   86.2399    8.4490 F       1  UNL1       -0.1676
      8 C          62.4386   85.6021    9.9680 C.3     1  UNL1        0.0398
      9 C          62.7135   84.5059   10.9544 C.3     1  UNL1        0.0212
     10 C          63.7805   83.9613   10.0516 C.3     1  UNL1        0.0044
     11 C          61.6466   85.0506   11.8571 C.3     1  UNL1        0.0044
     12 C          63.9623   85.1513   13.6047 C.3     1  UNL1        0.0307
     13 C          63.6129   83.7324   13.2658 C.ar    1  UNL1       -0.0257
     14 C          63.8878   82.6362   14.2521 C.ar    1  UNL1       -0.0023
     15 C          63.5384   81.2174   13.9133 C.ar    1  UNL1        0.0293
     16 C          62.9141   80.8947   12.5881 C.ar    1  UNL1        0.1398
     17 F          62.5647   79.4759   12.2493 F       1  UNL1       -0.2042
     18 C          62.6391   81.9909   11.6018 C.ar    1  UNL1        0.0250
     19 C          62.9885   83.4098   11.9407 C.ar    1  UNL1       -0.0244
     20 C          61.4151   88.2560   10.9217 C.3     1  UNL1        0.0811
     21 C          62.3761   89.3717   11.2073 C.2     1  UNL1        0.0614
     22 C          62.9097   90.3537   10.2066 C.2     1  UNL1        0.0163
     23 C          63.8356   91.2903   10.9245 C.2     1  UNL1        0.0264
     24 C          64.6485   92.4581   10.4497 C.2     1  UNL1        0.0903
     25 C          65.5001   93.2229   11.4193 C.2     1  UNL1        0.3193
     26 N          65.5389   92.8198   12.8635 N.2     1  UNL1       -0.0585
     27 C          64.7260   91.6520   13.3384 C.3     1  UNL1        0.3085
     28 C          63.8744   90.8873   12.3689 C.2     1  UNL1        0.1121
     29 N          62.9723   89.7015   12.5436 N.2     1  UNL1       -0.2495
     30 N          66.3130   94.3907   10.9444 N.pl3   1  UNL1       -0.1832
     31 C          67.3145   94.2089    9.8425 C.3     1  UNL1        0.2536
     32 C          66.1245   95.7402   11.5715 C.3     1  UNL1        0.2536
@<TRIPOS>BOND
     1    12    13    1
     2    13    14   ar
     3    14    15   ar
     4    15    16   ar
     5    16    17    1
     6    16    18   ar
     7    18    19   ar
     8    19     9    1
     9     9    10    1
    10     9    11    1
    11     9     8    1
    12     8     1    1
    13     1     2    1
    14     1    20    1
    15    20    21    1
    16    21    22    2
    17    22    23    1
    18    23    24    2
    19    24    25    1
    20    25    30    1
    21    30    31    1
    22    30    32    1
    23    25    26    2
    24    26    27    1
    25    27    28    1
    26    28    29    2
    27     1     4    1
    28     4     5    1
    29     4     6    1
    30     4     7    1
    31    19    13   ar
    32    29    21    1
    33    28    23    1
    34     2     3    1
@<TRIPOS>MOLECULE
*****
 32 34 0 0 0
SMALL
GASTEIGER

@<TRIPOS>ATOM
      1 C          61.6499   87.0364    9.4773 C.3     1  UNL1        0.1812
      2 O          62.9324   87.2479   10.2258 O.3     1  UNL1       -0.3784
      3 H          63.4395   86.4211   10.2384 H       1  UNL1        0.2106
      4 C          60.3673   86.8248    8.7287 C.3     1  UNL1        0.4197
      5 F          59.0848   86.6132    7.9802 F       1  UNL1       -0.1676
      6 F          59.6297   87.6142    9.7694 F       1  UNL1       -0.1676
      7 F          61.1049   86.0354    7.6882 F       1  UNL1       -0.1676
      8 C          62.0282   85.6054    9.2333 C.3     1  UNL1        0.0398
      9 C          62.4400   84.7324   10.3815 C.3     1  UNL1        0.0212
     10 C          63.5031   84.1091    9.5262 C.3     1  UNL1        0.0044
     11 C          61.3769   85.3556   11.2367 C.3     1  UNL1        0.0044
     12 C          63.5999   85.9618   12.8600 C.3     1  UNL1        0.0307
     13 C          63.4317   84.4740   12.7688 C.ar    1  UNL1       -0.0257
     14 C          63.8435   83.6009   13.9170 C.ar    1  UNL1       -0.0023
     15 C          63.6753   82.1132   13.8259 C.ar    1  UNL1        0.0293
     16 C          63.0953   81.4985   12.5865 C.ar    1  UNL1        0.1398
     17 F          62.9272   80.0107   12.4954 F       1  UNL1       -0.2042
     18 C          62.6836   82.3715   11.4384 C.ar    1  UNL1        0.0250
     19 C          62.8517   83.8593   11.5296 C.ar    1  UNL1       -0.0244
     20 C          61.2715   88.4672    9.7211 C.3     1  UNL1        0.0811
     21 C          62.1265   89.3293   10.6018 C.2     1  UNL1        0.0614
     22 C          63.0219   90.4426   10.1445 C.2     1  UNL1        0.0163
     23 C          63.6850   91.0310   11.3544 C.2     1  UNL1        0.0264
     24 C          64.6682   92.1524   11.5145 C.2     1  UNL1        0.0903
     25 C          65.1660   92.5243   12.8799 C.2     1  UNL1        0.3193
     26 N          64.6805   91.7748   14.0850 N.2     1  UNL1       -0.0585
     27 C          63.6973   90.6533   13.9249 C.3     1  UNL1        0.3085
     28 C          63.1996   90.2814   12.5597 C.2     1  UNL1        0.1121
     29 N          62.2363   89.2297   12.0945 N.2     1  UNL1       -0.2495
     30 N          66.1492   93.6458   13.0400 N.pl3   1  UNL1       -0.1832
     31 C          66.3834   94.6048   11.9106 C.3     1  UNL1        0.2536
     32 C          66.8981   93.8082   14.3294 C.3     1  UNL1        0.2536
@<TRIPOS>BOND
     1    12    13    1
     2    13    14   ar
     3    14    15   ar
     4    15    16   ar
     5    16    17    1
     6    16    18   ar
     7    18    19   ar
     8    19     9    1
     9     9    10    1
    10     9    11    1
    11     9     8    1
    12     8     1    1
    13     1     2    1
    14     1    20    1
    15    20    21    1
    16    21    22    2
    17    22    23    1
    18    23    24    2
    19    24    25    1
    20    25    30    1
    21    30    31    1
    22    30    32    1
    23    25    26    2
    24    26    27    1
    25    27    28    1
    26    28    29    2
    27     1     4    1
    28     4     5    1
    29     4     6    1
    30     4     7    1
    31    19    13   ar
    32    29    21    1
    33    28    23    1
    34     2     3    1
@<TRIPOS>MOLECULE
*****
 32 34 0 0 0
SMALL
GASTEIGER

@<TRIPOS>ATOM
      1 C          61.5738   86.9997    9.5817 C.3     1  UNL1        0.1812
      2 O          62.8495   87.2109   10.3420 O.3     1  UNL1       -0.3784
      3 H          63.3171   86.3657   10.4301 H       1  UNL1        0.2106
      4 C          60.2982   86.7884    8.8215 C.3     1  UNL1        0.4197
      5 F          59.0224   86.5772    8.0612 F       1  UNL1       -0.1676
      6 F          61.0591   86.0767    7.7424 F       1  UNL1       -0.1676
      7 F          59.5372   87.5001    9.9005 F       1  UNL1       -0.1676
      8 C          61.8898   85.5386    9.4574 C.3     1  UNL1        0.0398
      9 C          62.5281   84.8093   10.6023 C.3     1  UNL1        0.0212
     10 C          61.4866   85.3574   11.5322 C.3     1  UNL1        0.0044
     11 C          63.5696   84.2611    9.6724 C.3     1  UNL1        0.0044
     12 C          62.9566   81.8444   10.4400 C.3     1  UNL1        0.0307
     13 C          63.3807   82.5976   11.6660 C.ar    1  UNL1       -0.0257
     14 C          64.0189   81.8682   12.8108 C.ar    1  UNL1       -0.0023
     15 C          64.4430   82.6213   14.0368 C.ar    1  UNL1        0.0293
     16 C          64.2287   84.1037   14.1180 C.ar    1  UNL1        0.1398
     17 F          64.6527   84.8568   15.3440 F       1  UNL1       -0.2042
     18 C          63.5904   84.8331   12.9732 C.ar    1  UNL1        0.0250
     19 C          63.1664   84.0799   11.7471 C.ar    1  UNL1       -0.0244
     20 C          61.2578   88.4607    9.7060 C.3     1  UNL1        0.0811
     21 C          62.1107   89.3416   10.5700 C.2     1  UNL1        0.0614
     22 C          63.0183   90.4352   10.0898 C.2     1  UNL1        0.0163
     23 C          63.6743   91.0532   11.2888 C.2     1  UNL1        0.0264
     24 C          64.6640   92.1719   11.4264 C.2     1  UNL1        0.0903
     25 C          65.1516   92.5790   12.7853 C.2     1  UNL1        0.3193
     26 N          64.6495   91.8674   14.0066 N.2     1  UNL1       -0.0585
     27 C          63.6598   90.7487   13.8690 C.3     1  UNL1        0.3085
     28 C          63.1722   90.3416   12.5102 C.2     1  UNL1        0.1121
     29 N          62.2058   89.2838   12.0659 N.2     1  UNL1       -0.2495
     30 N          66.1413   93.6978   12.9229 N.pl3   1  UNL1       -0.1832
     31 C          66.3970   94.6193   11.7672 C.3     1  UNL1        0.2536
     32 C          66.8753   93.8950   14.2160 C.3     1  UNL1        0.2536
@<TRIPOS>BOND
     1    12    13    1
     2    13    14   ar
     3    14    15   ar
     4    15    16   ar
     5    16    17    1
     6    16    18   ar
     7    18    19   ar
     8    19     9    1
     9     9    10    1
    10     9    11    1
    11     9     8    1
    12     8     1    1
    13     1     2    1
    14     1    20    1
    15    20    21    1
    16    21    22    2
    17    22    23    1
    18    23    24    2
    19    24    25    1
    20    25    30    1
    21    30    31    1
    22    30    32    1
    23    25    26    2
    24    26    27    1
    25    27    28    1
    26    28    29    2
    27     1     4    1
    28     4     5    1
    29     4     6    1
    30     4     7    1
    31    19    13   ar
    32    29    21    1
    33    28    23    1
    34     2     3    1
@<TRIPOS>MOLECULE
*****
 32 34 0 0 0
SMALL
GASTEIGER

@<TRIPOS>ATOM
      1 C          62.7482   89.4621   12.2531 C.3     1  UNL1        0.1812
      2 O          63.9566   88.8242   12.8717 O.3     1  UNL1       -0.3784
      3 H          64.2713   89.3731   13.6069 H       1  UNL1        0.2106
      4 C          61.5397   90.1000   11.6345 C.3     1  UNL1        0.4197
      5 F          60.3312   90.7380   11.0159 F       1  UNL1       -0.1676
      6 F          62.3165   90.3513   10.3760 F       1  UNL1       -0.1676
      7 F          60.7630   89.8489   12.8928 F       1  UNL1       -0.1676
      8 C          62.8371   90.5880   13.2403 C.3     1  UNL1        0.0398
      9 C          64.1771   91.0563   13.7251 C.3     1  UNL1        0.0212
     10 C          64.3335   91.8896   12.4878 C.3     1  UNL1        0.0044
     11 C          64.0206   90.2229   14.9625 C.3     1  UNL1        0.0044
     12 C          64.4512   92.2343   16.4705 C.3     1  UNL1        0.0307
     13 C          65.6542   92.1136   15.5826 C.ar    1  UNL1       -0.0257
     14 C          66.9942   92.5819   16.0674 C.ar    1  UNL1       -0.0023
     15 C          68.1971   92.4612   15.1796 C.ar    1  UNL1        0.0293
     16 C          68.0601   91.8721   13.8068 C.ar    1  UNL1        0.1398
     17 F          69.2631   91.7514   12.9190 F       1  UNL1       -0.2042
     18 C          66.7201   91.4038   13.3220 C.ar    1  UNL1        0.0250
     19 C          65.5171   91.5246   14.2099 C.ar    1  UNL1       -0.0244
     20 C          62.6592   88.3363   11.2658 C.3     1  UNL1        0.0811
     21 C          62.7786   86.9165   11.7347 C.2     1  UNL1        0.0614
     22 C          62.3938   85.6948   10.9539 C.2     1  UNL1        0.0163
     23 C          62.6810   84.4923   11.8033 C.2     1  UNL1        0.0264
     24 C          62.5032   83.0235   11.5565 C.2     1  UNL1        0.0903
     25 C          62.8878   82.0331   12.6154 C.2     1  UNL1        0.3193
     26 N          63.4502   82.5115   13.9211 N.2     1  UNL1       -0.0585
     27 C          63.6280   83.9804   14.1679 C.3     1  UNL1        0.3085
     28 C          63.2435   84.9708   13.1090 C.2     1  UNL1        0.1121
     29 N          63.3037   86.4690   13.0666 N.2     1  UNL1       -0.2495
     30 N          62.7100   80.5643   12.3686 N.pl3   1  UNL1       -0.1832
     31 C          62.2640   79.6650   13.4834 C.3     1  UNL1        0.2536
     32 C          62.9781   79.9947   11.0072 C.3     1  UNL1        0.2536
@<TRIPOS>BOND
     1    12    13    1
     2    13    14   ar
     3    14    15   ar
     4    15    16   ar
     5    16    17    1
     6    16    18   ar
     7    18    19   ar
     8    19     9    1
     9     9    10    1
    10     9    11    1
    11     9     8    1
    12     8     1    1
    13     1     2    1
    14     1    20    1
    15    20    21    1
    16    21    22    2
    17    22    23    1
    18    23    24    2
    19    24    25    1
    20    25    30    1
    21    30    31    1
    22    30    32    1
    23    25    26    2
    24    26    27    1
    25    27    28    1
    26    28    29    2
    27     1     4    1
    28     4     5    1
    29     4     6    1
    30     4     7    1
    31    19    13   ar
    32    29    21    1
    33    28    23    1
    34     2     3    1
@<TRIPOS>MOLECULE
*****
 32 34 0 0 0
SMALL
GASTEIGER

@<TRIPOS>ATOM
      1 C          61.2890   88.7185    9.6483 C.3     1  UNL1        0.1812
      2 O          62.4251   88.2932   10.5305 O.3     1  UNL1       -0.3784
      3 H          62.5535   87.3349   10.4529 H       1  UNL1        0.2106
      4 C          60.1528   89.1438    8.7662 C.3     1  UNL1        0.4197
      5 F          59.0166   89.5692    7.8840 F       1  UNL1       -0.1676
      6 F          60.5180   88.0741    7.7801 F       1  UNL1       -0.1676
      7 F          59.7876   90.2135    9.7522 F       1  UNL1       -0.1676
      8 C          61.0978   87.2970    9.2091 C.3     1  UNL1        0.0398
      9 C          61.9033   86.2016    9.8425 C.3     1  UNL1        0.0212
     10 C          62.7982   86.1639    8.6393 C.3     1  UNL1        0.0044
     11 C          61.0084   86.2392   11.0457 C.3     1  UNL1        0.0044
     12 C          63.2444   84.1402    8.1242 C.3     1  UNL1        0.0307
     13 C          63.3793   84.0755    9.6168 C.ar    1  UNL1       -0.0257
     14 C          64.1848   82.9800   10.2502 C.ar    1  UNL1       -0.0023
     15 C          64.3197   82.9152   11.7427 C.ar    1  UNL1        0.0293
     16 C          63.6491   83.9459   12.6018 C.ar    1  UNL1        0.1398
     17 F          63.7840   83.8811   14.0943 F       1  UNL1       -0.2042
     18 C          62.8437   85.0413   11.9684 C.ar    1  UNL1        0.0250
     19 C          62.7088   85.1061   10.4759 C.ar    1  UNL1       -0.0244
     20 C          61.4800   90.1399   10.0876 C.3     1  UNL1        0.0811
     21 C          62.4343   90.4593   11.1999 C.2     1  UNL1        0.0614
     22 C          63.7402   91.1842   11.0604 C.2     1  UNL1        0.0163
     23 C          64.3633   91.2828   12.4213 C.2     1  UNL1        0.0264
     24 C          65.6501   91.8914   12.8943 C.2     1  UNL1        0.0903
     25 C          66.0162   91.8360   14.3480 C.2     1  UNL1        0.3193
     26 N          65.0954   91.1722   15.3285 N.2     1  UNL1       -0.0585
     27 C          63.8086   90.5637   14.8555 C.3     1  UNL1        0.3085
     28 C          63.4425   90.6190   13.4020 C.2     1  UNL1        0.1121
     29 N          62.2503   90.1100   12.6470 N.2     1  UNL1       -0.2495
     30 N          67.3030   92.4446   14.8210 N.pl3   1  UNL1       -0.1832
     31 C          68.5557   92.2713   14.0143 C.3     1  UNL1        0.2536
     32 C          67.3372   93.2264   16.1007 C.3     1  UNL1        0.2536
@<TRIPOS>BOND
     1    12    13    1
     2    13    14   ar
     3    14    15   ar
     4    15    16   ar
     5    16    17    1
     6    16    18   ar
     7    18    19   ar
     8    19     9    1
     9     9    10    1
    10     9    11    1
    11     9     8    1
    12     8     1    1
    13     1     2    1
    14     1    20    1
    15    20    21    1
    16    21    22    2
    17    22    23    1
    18    23    24    2
    19    24    25    1
    20    25    30    1
    21    30    31    1
    22    30    32    1
    23    25    26    2
    24    26    27    1
    25    27    28    1
    26    28    29    2
    27     1     4    1
    28     4     5    1
    29     4     6    1
    30     4     7    1
    31    19    13   ar
    32    29    21    1
    33    28    23    1
    34     2     3    1
@<TRIPOS>MOLECULE
*****
 32 34 0 0 0
SMALL
GASTEIGER

@<TRIPOS>ATOM
      1 C          63.0245   84.2844   14.8921 C.3     1  UNL1        0.1812
      2 O          61.8407   85.0830   14.4330 O.3     1  UNL1       -0.3784
      3 H          61.4943   84.7037   13.6102 H       1  UNL1        0.2106
      4 C          64.2083   83.4858   15.3512 C.3     1  UNL1        0.4197
      5 F          65.3922   82.6872   15.8102 F       1  UNL1       -0.1676
      6 F          64.7232   84.6794   16.0999 F       1  UNL1       -0.1676
      7 F          63.6936   82.2924   14.6025 F       1  UNL1       -0.1676
      8 C          62.8749   83.3799   13.7048 C.3     1  UNL1        0.0398
      9 C          62.7454   83.9635   12.3290 C.3     1  UNL1        0.0212
     10 C          61.9914   82.7458   11.8834 C.3     1  UNL1        0.0044
     11 C          63.4994   85.1813   12.7746 C.3     1  UNL1        0.0044
     12 C          64.4830   82.9537   10.1017 C.3     1  UNL1        0.0307
     13 C          63.4847   84.0422    9.8396 C.ar    1  UNL1       -0.0257
     14 C          63.3552   84.6258    8.4639 C.ar    1  UNL1       -0.0023
     15 C          62.3570   85.7143    8.2018 C.ar    1  UNL1        0.0293
     16 C          61.4881   86.2192    9.3155 C.ar    1  UNL1        0.1398
     17 F          60.4899   87.3076    9.0534 F       1  UNL1       -0.2042
     18 C          61.6176   85.6356   10.6912 C.ar    1  UNL1        0.0250
     19 C          62.6159   84.5471   10.9533 C.ar    1  UNL1       -0.0244
     20 C          63.1742   85.1888   16.0794 C.3     1  UNL1        0.0811
     21 C          63.4610   86.6474   15.8796 C.2     1  UNL1        0.0614
     22 C          64.3409   87.2355   14.8164 C.2     1  UNL1        0.0163
     23 C          64.3421   88.7257   14.9876 C.2     1  UNL1        0.0264
     24 C          65.0301   89.8225   14.2301 C.2     1  UNL1        0.0903
     25 C          64.8389   91.2523   14.6415 C.2     1  UNL1        0.3193
     26 N          63.9598   91.5852   15.8104 N.2     1  UNL1       -0.0585
     27 C          63.2719   90.4885   16.5679 C.3     1  UNL1        0.3085
     28 C          63.4629   89.0587   16.1565 C.2     1  UNL1        0.1121
     29 N          62.9184   87.7743   16.7078 N.2     1  UNL1       -0.2495
     30 N          65.5269   92.3490   13.8840 N.pl3   1  UNL1       -0.1832
     31 C          66.4515   93.2889   14.5995 C.3     1  UNL1        0.2536
     32 C          65.2903   92.5059   12.4112 C.3     1  UNL1        0.2536
@<TRIPOS>BOND
     1    12    13    1
     2    13    14   ar
     3    14    15   ar
     4    15    16   ar
     5    16    17    1
     6    16    18   ar
     7    18    19   ar
     8    19     9    1
     9     9    10    1
    10     9    11    1
    11     9     8    1
    12     8     1    1
    13     1     2    1
    14     1    20    1
    15    20    21    1
    16    21    22    2
    17    22    23    1
    18    23    24    2
    19    24    25    1
    20    25    30    1
    21    30    31    1
    22    30    32    1
    23    25    26    2
    24    26    27    1
    25    27    28    1
    26    28    29    2
    27     1     4    1
    28     4     5    1
    29     4     6    1
    30     4     7    1
    31    19    13   ar
    32    29    21    1
    33    28    23    1
    34     2     3    1
