@<TRIPOS>MOLECULE
*****
 26 30 0 0 0
SMALL
GASTEIGER

@<TRIPOS>ATOM
      1 C          61.5433   89.9404   11.8395 C.3     1  UNL1        0.1285
      2 N          61.1050   89.4318   13.1808 N.3     1  UNL1       -0.3150
      3 H          61.7932   89.6956   13.8860 H       1  UNL1        0.1192
      4 H          61.0233   88.4156   13.1490 H       1  UNL1        0.1192
      5 C          62.8264   90.7068   11.7107 C.3     1  UNL1        0.0237
      6 C          63.7095   90.8976   12.9080 C.3     1  UNL1        0.0019
      7 C          64.9924   91.6640   12.7791 C.3     1  UNL1        0.0024
      8 C          65.3922   92.2397   11.4529 C.3     1  UNL1        0.0002
      9 C          64.5091   92.0489   10.2556 C.3     1  UNL1        0.0024
     10 C          63.0306   90.5441   12.7773 C.3     1  UNL1        0.0269
     11 C          63.3097   90.3220   14.2342 C.3     1  UNL1        0.0884
     12 O          62.9099   89.7463   15.5604 O.3     1  UNL1       -0.3867
     13 C          64.5926   91.0884   14.1053 C.3     1  UNL1        0.0269
     14 C          62.4266   90.1312   13.0369 C.3     1  UNL1        0.0287
     15 C          63.2262   91.2825   10.3845 C.3     1  UNL1        0.0019
     16 H          63.5862   89.9592   16.2224 H       1  UNL1        0.2102
     17 C          61.5172   87.1461   10.4232 C.3     1  UNL1        0.1672
     18 C          61.2269   86.0098    9.4880 C.3     1  UNL1        0.0372
     19 C          60.2433   86.4924    8.4634 C.3     1  UNL1        0.0226
     20 C          59.2783   87.2455    7.5965 C.3     1  UNL1        0.0216
     21 C          59.9258   87.9270    8.7654 C.3     1  UNL1        0.0764
     22 N          60.7131   88.3310    9.9766 N.am    1  UNL1       -0.2691
     23 C          60.6987   89.6826   10.6270 C.2     1  UNL1        0.2403
     24 O          59.8398   90.7763   10.0650 O.2     1  UNL1       -0.2734
     25 N          63.3792   87.0634   12.7740 N.1     1  UNL1       -0.1942
     26 C          62.4482   87.1048   11.5986 C.1     1  UNL1        0.0925
@<TRIPOS>BOND
     1    25    26    3
     2    17    26    1
     3    17    18    1
     4    19    18    1
     5    19    20    1
     6    21    20    1
     7    21    22    1
     8    22    23   am
     9    23    24    2
    10    23     1    1
    11     1     2    1
    12     1     5    1
    13     5     6    1
    14     6     7    1
    15     7     8    1
    16     8     9    1
    17     9    10    1
    18    10    11    1
    19    11    12    1
    20    11    13    1
    21    11    14    1
    22     9    15    1
    23    22    17    1
    24    14     5    1
    25    21    19    1
    26    15     5    1
    27    13     7    1
    28     2     3    1
    29     2     4    1
    30    12    16    1
@<TRIPOS>MOLECULE
*****
 26 30 0 0 0
SMALL
GASTEIGER

@<TRIPOS>ATOM
      1 C          61.8853   87.2674   11.4153 C.3     1  UNL1        0.1285
      2 N          60.4081   87.4692   11.5800 N.3     1  UNL1       -0.3150
      3 H          59.9067   86.7383   11.0751 H       1  UNL1        0.1192
      4 H          60.1458   88.3815   11.2067 H       1  UNL1        0.1192
      5 C          62.3990   86.1175   10.6005 C.3     1  UNL1        0.0237
      6 C          62.7361   84.8170   11.2677 C.3     1  UNL1        0.0019
      7 C          63.2498   83.6672   10.4529 C.3     1  UNL1        0.0024
      8 C          63.4263   83.8177    8.9710 C.3     1  UNL1        0.0002
      9 C          63.0891   85.1181    8.3038 C.3     1  UNL1        0.0024
     10 C          62.4669   85.5042   11.5089 C.3     1  UNL1        0.0269
     11 C          62.5597   84.6665   12.7497 C.3     1  UNL1        0.0884
     12 O          62.3832   84.5159   14.2316 O.3     1  UNL1       -0.3867
     13 C          63.0733   83.5166   11.9349 C.3     1  UNL1        0.0269
     14 C          62.2225   85.9669   12.0825 C.3     1  UNL1        0.0287
     15 C          62.5754   86.2680    9.1186 C.3     1  UNL1        0.0019
     16 H          62.6447   83.6209   14.4991 H       1  UNL1        0.2102
     17 C          62.3778   90.1433   10.2747 C.3     1  UNL1        0.1672
     18 C          62.8830   91.5396   10.0616 C.3     1  UNL1        0.0372
     19 C          63.8750   91.8439   11.1449 C.3     1  UNL1        0.0226
     20 C          64.8020   91.8568   12.3241 C.3     1  UNL1        0.0216
     21 C          63.9830   90.6357   12.0273 C.3     1  UNL1        0.0764
     22 N          63.0577   89.5848   11.4895 N.am    1  UNL1       -0.2691
     23 C          62.8488   88.2155   12.0654 C.2     1  UNL1        0.2403
     24 O          63.6035   87.7945   13.2914 O.2     1  UNL1       -0.2734
     25 N          60.3618   88.7183    8.5703 N.1     1  UNL1       -0.1942
     26 C          61.3698   89.4308    9.4225 C.1     1  UNL1        0.0925
@<TRIPOS>BOND
     1    25    26    3
     2    17    26    1
     3    17    18    1
     4    19    18    1
     5    19    20    1
     6    21    20    1
     7    21    22    1
     8    22    23   am
     9    23    24    2
    10    23     1    1
    11     1     2    1
    12     1     5    1
    13     5     6    1
    14     6     7    1
    15     7     8    1
    16     8     9    1
    17     9    10    1
    18    10    11    1
    19    11    12    1
    20    11    13    1
    21    11    14    1
    22     9    15    1
    23    22    17    1
    24    14     5    1
    25    21    19    1
    26    15     5    1
    27    13     7    1
    28     2     3    1
    29     2     4    1
    30    12    16    1
@<TRIPOS>MOLECULE
*****
 26 30 0 0 0
SMALL
GASTEIGER

@<TRIPOS>ATOM
      1 C          62.1582   89.5640   11.8302 C.3     1  UNL1        0.1285
      2 N          61.1848   90.0018   12.8841 N.3     1  UNL1       -0.3150
      3 H          60.6783   89.1900   13.2375 H       1  UNL1        0.1192
      4 H          60.5237   90.6661   12.4815 H       1  UNL1        0.1192
      5 C          62.2588   88.1143   11.4579 C.3     1  UNL1        0.0237
      6 C          61.6238   87.6191   10.1925 C.3     1  UNL1        0.0019
      7 C          61.7245   86.1696    9.8203 C.3     1  UNL1        0.0024
      8 C          62.4602   85.2152   10.7136 C.3     1  UNL1        0.0002
      9 C          63.0951   85.7104   11.9791 C.3     1  UNL1        0.0024
     10 C          61.6795   88.3084   10.5455 C.3     1  UNL1        0.0269
     11 C          60.8882   88.5735    9.2991 C.3     1  UNL1        0.0884
     12 O          60.1526   89.5279    8.4058 O.3     1  UNL1       -0.3867
     13 C          60.9889   87.1239    8.9270 C.3     1  UNL1        0.0269
     14 C          61.5232   89.0687   10.5646 C.3     1  UNL1        0.0287
     15 C          62.9945   87.1600   12.3513 C.3     1  UNL1        0.0019
     16 H          59.8059   89.0490    7.6368 H       1  UNL1        0.2102
     17 C          64.4956   90.9988   13.3442 C.3     1  UNL1        0.1672
     18 C          65.6644   91.8743   13.6871 C.3     1  UNL1        0.0372
     19 C          66.0316   92.6581   12.4620 C.3     1  UNL1        0.0226
     20 C          66.1601   93.2864   11.1059 C.3     1  UNL1        0.0216
     21 C          65.0898   92.2671   11.3619 C.3     1  UNL1        0.0764
     22 N          64.1406   91.2416   11.9071 N.am    1  UNL1       -0.2691
     23 C          63.0310   90.5757   11.1485 C.2     1  UNL1        0.2403
     24 O          62.7942   90.9215    9.7083 O.2     1  UNL1       -0.2734
     25 N          63.1114   89.0964   15.2056 N.1     1  UNL1       -0.1942
     26 C          63.8035   90.0476   14.2749 C.1     1  UNL1        0.0925
@<TRIPOS>BOND
     1    25    26    3
     2    17    26    1
     3    17    18    1
     4    19    18    1
     5    19    20    1
     6    21    20    1
     7    21    22    1
     8    22    23   am
     9    23    24    2
    10    23     1    1
    11     1     2    1
    12     1     5    1
    13     5     6    1
    14     6     7    1
    15     7     8    1
    16     8     9    1
    17     9    10    1
    18    10    11    1
    19    11    12    1
    20    11    13    1
    21    11    14    1
    22     9    15    1
    23    22    17    1
    24    14     5    1
    25    21    19    1
    26    15     5    1
    27    13     7    1
    28     2     3    1
    29     2     4    1
    30    12    16    1
@<TRIPOS>MOLECULE
*****
 26 30 0 0 0
SMALL
GASTEIGER

@<TRIPOS>ATOM
      1 C          62.4719   89.5579   12.3944 C.3     1  UNL1        0.1285
      2 N          61.0615   89.9347   12.7389 N.3     1  UNL1       -0.3150
      3 H          60.9745   90.9509   12.7517 H       1  UNL1        0.1192
      4 H          60.8247   89.5616   13.6582 H       1  UNL1        0.1192
      5 C          63.4915   90.6270   12.1340 C.3     1  UNL1        0.0237
      6 C          64.3107   91.1736   13.2654 C.3     1  UNL1        0.0019
      7 C          65.3302   92.2426   13.0050 C.3     1  UNL1        0.0024
      8 C          65.5305   92.7649   11.6132 C.3     1  UNL1        0.0002
      9 C          64.7114   92.2182   10.4818 C.3     1  UNL1        0.0024
     10 C          63.7530   90.6373   13.2005 C.3     1  UNL1        0.0269
     11 C          64.1103   90.6514   14.6572 C.3     1  UNL1        0.0884
     12 O          63.9100   90.1291   16.0490 O.3     1  UNL1       -0.3867
     13 C          65.1298   91.7203   14.3968 C.3     1  UNL1        0.0269
     14 C          63.2912   90.1047   13.5258 C.3     1  UNL1        0.0287
     15 C          63.6919   91.1492   10.7422 C.3     1  UNL1        0.0019
     16 H          64.5140   90.5853   16.6556 H       1  UNL1        0.2102
     17 C          61.3885   87.6960   10.1198 C.3     1  UNL1        0.1672
     18 C          61.1109   86.5157    9.2366 C.3     1  UNL1        0.0372
     19 C          61.8739   85.3427    9.7771 C.3     1  UNL1        0.0226
     20 C          62.7325   84.3742   10.5353 C.3     1  UNL1        0.0216
     21 C          62.6230   85.7980   10.9942 C.3     1  UNL1        0.0764
     22 N          62.3230   87.2523   11.2061 N.am    1  UNL1       -0.2691
     23 C          62.8628   88.1123   12.3103 C.2     1  UNL1        0.2403
     24 O          63.7934   87.5264   13.3304 O.2     1  UNL1       -0.2734
     25 N          60.2708   90.4584    9.7743 N.1     1  UNL1       -0.1942
     26 C          60.8296   89.0772    9.9471 C.1     1  UNL1        0.0925
@<TRIPOS>BOND
     1    25    26    3
     2    17    26    1
     3    17    18    1
     4    19    18    1
     5    19    20    1
     6    21    20    1
     7    21    22    1
     8    22    23   am
     9    23    24    2
    10    23     1    1
    11     1     2    1
    12     1     5    1
    13     5     6    1
    14     6     7    1
    15     7     8    1
    16     8     9    1
    17     9    10    1
    18    10    11    1
    19    11    12    1
    20    11    13    1
    21    11    14    1
    22     9    15    1
    23    22    17    1
    24    14     5    1
    25    21    19    1
    26    15     5    1
    27    13     7    1
    28     2     3    1
    29     2     4    1
    30    12    16    1
@<TRIPOS>MOLECULE
*****
 26 30 0 0 0
SMALL
GASTEIGER

@<TRIPOS>ATOM
      1 C          61.2598   86.9195   10.6485 C.3     1  UNL1        0.1285
      2 N          59.8589   87.4524   10.7087 N.3     1  UNL1       -0.3150
      3 H          59.3554   87.1811    9.8641 H       1  UNL1        0.1192
      4 H          59.8847   88.4698   10.7772 H       1  UNL1        0.1192
      5 C          61.7090   86.1236    9.4591 C.3     1  UNL1        0.0237
      6 C          60.8396   86.0419    8.2395 C.3     1  UNL1        0.0019
      7 C          61.2888   85.2460    7.0502 C.3     1  UNL1        0.0024
      8 C          62.6074   84.5316    7.0804 C.3     1  UNL1        0.0002
      9 C          63.4769   84.6133    8.3000 C.3     1  UNL1        0.0024
     10 C          60.7842   86.3910    8.9309 C.3     1  UNL1        0.0269
     11 C          59.5209   86.7563    8.2093 C.3     1  UNL1        0.0884
     12 O          58.2023   87.4706    8.1791 O.3     1  UNL1       -0.3867
     13 C          59.9702   85.9603    7.0200 C.3     1  UNL1        0.0269
     14 C          60.3903   86.8379    9.4289 C.3     1  UNL1        0.0287
     15 C          63.0276   85.4092    9.4893 C.3     1  UNL1        0.0019
     16 H          57.7701   87.3157    7.3246 H       1  UNL1        0.2102
     17 C          62.3699   89.7924   11.2218 C.3     1  UNL1        0.1672
     18 C          63.1034   90.9601   11.8124 C.3     1  UNL1        0.0372
     19 C          63.9080   90.4616   12.9761 C.3     1  UNL1        0.0226
     20 C          64.5889   89.6850   14.0639 C.3     1  UNL1        0.0216
     21 C          63.6718   88.9859   13.1048 C.3     1  UNL1        0.0764
     22 N          62.7212   88.5724   12.0206 N.am    1  UNL1       -0.2691
     23 C          62.2114   87.1827   11.7777 C.2     1  UNL1        0.2403
     24 O          62.6533   86.0561   12.6641 O.2     1  UNL1       -0.2734
     25 N          60.5245   89.8818    8.8583 N.1     1  UNL1       -0.1942
     26 C          61.4472   89.8371   10.0400 C.1     1  UNL1        0.0925
@<TRIPOS>BOND
     1    25    26    3
     2    17    26    1
     3    17    18    1
     4    19    18    1
     5    19    20    1
     6    21    20    1
     7    21    22    1
     8    22    23   am
     9    23    24    2
    10    23     1    1
    11     1     2    1
    12     1     5    1
    13     5     6    1
    14     6     7    1
    15     7     8    1
    16     8     9    1
    17     9    10    1
    18    10    11    1
    19    11    12    1
    20    11    13    1
    21    11    14    1
    22     9    15    1
    23    22    17    1
    24    14     5    1
    25    21    19    1
    26    15     5    1
    27    13     7    1
    28     2     3    1
    29     2     4    1
    30    12    16    1
@<TRIPOS>MOLECULE
*****
 26 30 0 0 0
SMALL
GASTEIGER

@<TRIPOS>ATOM
      1 C          61.9890   86.2426   11.4189 C.3     1  UNL1        0.1285
      2 N          61.0987   85.9615   10.2448 N.3     1  UNL1       -0.3150
      3 H          60.9394   86.8243    9.7247 H       1  UNL1        0.1192
      4 H          60.2064   85.5940   10.5751 H       1  UNL1        0.1192
      5 C          62.4917   87.6348   11.6626 C.3     1  UNL1        0.0237
      6 C          62.0733   88.7530   10.7546 C.3     1  UNL1        0.0019
      7 C          62.5759   90.1450   10.9983 C.3     1  UNL1        0.0024
      8 C          63.4969   90.4189   12.1502 C.3     1  UNL1        0.0002
      9 C          63.9152   89.3008   13.0583 C.3     1  UNL1        0.0024
     10 C          61.9256   87.9916   10.7920 C.3     1  UNL1        0.0269
     11 C          61.1523   88.4790    9.6027 C.3     1  UNL1        0.0884
     12 O          60.2313   88.2051    8.4508 O.3     1  UNL1       -0.3867
     13 C          61.6549   89.8711    9.8465 C.3     1  UNL1        0.0269
     14 C          61.5707   87.3609   10.5108 C.3     1  UNL1        0.0287
     15 C          63.4126   87.9087   12.8145 C.3     1  UNL1        0.0019
     16 H          60.0625   89.0297    7.9687 H       1  UNL1        0.2102
     17 C          63.5782   83.7384   10.4098 C.3     1  UNL1        0.1672
     18 C          64.3045   82.4278   10.3393 C.3     1  UNL1        0.0372
     19 C          64.3129   81.8280   11.7142 C.3     1  UNL1        0.0226
     20 C          64.1629   81.4873   13.1673 C.3     1  UNL1        0.0216
     21 C          63.5918   82.7678   12.6344 C.3     1  UNL1        0.0764
     22 N          63.1377   83.9485   11.8283 N.am    1  UNL1       -0.2691
     23 C          62.3768   85.1316   12.3491 C.2     1  UNL1        0.2403
     24 O          62.0036   85.2037   13.8001 O.2     1  UNL1       -0.2734
     25 N          63.0919   85.6105    8.1166 N.1     1  UNL1       -0.1942
     26 C          63.3350   84.6745    9.2632 C.1     1  UNL1        0.0925
@<TRIPOS>BOND
     1    25    26    3
     2    17    26    1
     3    17    18    1
     4    19    18    1
     5    19    20    1
     6    21    20    1
     7    21    22    1
     8    22    23   am
     9    23    24    2
    10    23     1    1
    11     1     2    1
    12     1     5    1
    13     5     6    1
    14     6     7    1
    15     7     8    1
    16     8     9    1
    17     9    10    1
    18    10    11    1
    19    11    12    1
    20    11    13    1
    21    11    14    1
    22     9    15    1
    23    22    17    1
    24    14     5    1
    25    21    19    1
    26    15     5    1
    27    13     7    1
    28     2     3    1
    29     2     4    1
    30    12    16    1
@<TRIPOS>MOLECULE
*****
 26 30 0 0 0
SMALL
GASTEIGER

@<TRIPOS>ATOM
      1 C          63.3749   84.8144   13.1857 C.3     1  UNL1        0.1285
      2 N          64.8413   84.7667   13.4979 N.3     1  UNL1       -0.3150
      3 H          65.3340   85.4487   12.9213 H       1  UNL1        0.1192
      4 H          65.2006   83.8325   13.3014 H       1  UNL1        0.1192
      5 C          62.8583   85.7741   12.1551 C.3     1  UNL1        0.0237
      6 C          63.0789   87.2479   12.3254 C.3     1  UNL1        0.0019
      7 C          62.5623   88.2076   11.2947 C.3     1  UNL1        0.0024
      8 C          61.8251   87.6933   10.0938 C.3     1  UNL1        0.0002
      9 C          61.6046   86.2194    9.9236 C.3     1  UNL1        0.0024
     10 C          63.2631   86.6143   12.7347 C.3     1  UNL1        0.0269
     11 C          63.8160   87.7622   13.5263 C.3     1  UNL1        0.0884
     12 O          64.5532   88.2764   14.7272 O.3     1  UNL1       -0.3867
     13 C          63.2994   88.7218   12.4957 C.3     1  UNL1        0.0269
     14 C          63.5955   86.2883   13.3560 C.3     1  UNL1        0.0287
     15 C          62.1212   85.2598   10.9542 C.3     1  UNL1        0.0019
     16 H          64.6078   89.2439   14.6832 H       1  UNL1        0.2102
     17 C          63.0416   81.8117   12.3569 C.3     1  UNL1        0.1672
     18 C          62.6008   80.3796   12.2838 C.3     1  UNL1        0.0372
     19 C          61.5802   80.1534   13.3596 C.3     1  UNL1        0.0226
     20 C          60.6093   80.2298   14.5004 C.3     1  UNL1        0.0216
     21 C          61.3902   81.4454   14.0975 C.3     1  UNL1        0.0764
     22 N          62.2933   82.4702   13.4778 N.am    1  UNL1       -0.2691
     23 C          62.4252   83.9024   13.9041 C.2     1  UNL1        0.2403
     24 O          61.6072   84.4224   15.0489 O.2     1  UNL1       -0.2734
     25 N          65.0643   83.1272   10.5743 N.1     1  UNL1       -0.1942
     26 C          64.0530   82.4694   11.4656 C.1     1  UNL1        0.0925
@<TRIPOS>BOND
     1    25    26    3
     2    17    26    1
     3    17    18    1
     4    19    18    1
     5    19    20    1
     6    21    20    1
     7    21    22    1
     8    22    23   am
     9    23    24    2
    10    23     1    1
    11     1     2    1
    12     1     5    1
    13     5     6    1
    14     6     7    1
    15     7     8    1
    16     8     9    1
    17     9    10    1
    18    10    11    1
    19    11    12    1
    20    11    13    1
    21    11    14    1
    22     9    15    1
    23    22    17    1
    24    14     5    1
    25    21    19    1
    26    15     5    1
    27    13     7    1
    28     2     3    1
    29     2     4    1
    30    12    16    1
@<TRIPOS>MOLECULE
*****
 26 30 0 0 0
SMALL
GASTEIGER

@<TRIPOS>ATOM
      1 C          62.4054   85.3397   12.5238 C.3     1  UNL1        0.1285
      2 N          62.1770   85.2467   14.0034 N.3     1  UNL1       -0.3150
      3 H          62.4929   84.3370   14.3396 H       1  UNL1        0.1192
      4 H          61.1824   85.3559   14.2014 H       1  UNL1        0.1192
      5 C          63.0161   84.1857   11.7852 C.3     1  UNL1        0.0237
      6 C          63.2079   82.8691   12.4777 C.3     1  UNL1        0.0019
      7 C          63.8186   81.7152   11.7391 C.3     1  UNL1        0.0024
      8 C          64.2375   81.8779   10.3080 C.3     1  UNL1        0.0002
      9 C          64.0458   83.1946    9.6155 C.3     1  UNL1        0.0024
     10 C          62.9201   83.5605   12.6827 C.3     1  UNL1        0.0269
     11 C          62.7889   82.7063   13.9088 C.3     1  UNL1        0.0884
     12 O          62.3700   82.5435   15.3398 O.3     1  UNL1       -0.3867
     13 C          63.3996   81.5524   13.1702 C.3     1  UNL1        0.0269
     14 C          62.5972   84.0229   13.2163 C.3     1  UNL1        0.0287
     15 C          63.4351   84.3485   10.3541 C.3     1  UNL1        0.0019
     16 H          62.5622   81.6388   15.6321 H       1  UNL1        0.2102
     17 C          63.6951   88.1124   13.2044 C.3     1  UNL1        0.1672
     18 C          64.0531   89.5691   13.2142 C.3     1  UNL1        0.0372
     19 C          63.2421   90.2529   12.1536 C.3     1  UNL1        0.0226
     20 C          62.3158   90.6494   11.0424 C.3     1  UNL1        0.0216
     21 C          62.3830   89.2188   11.4883 C.3     1  UNL1        0.0764
     22 N          62.6629   87.8960   12.1377 N.am    1  UNL1       -0.2691
     23 C          62.0230   86.5865   11.7827 C.2     1  UNL1        0.2403
     24 O          61.0008   86.5240   10.6868 O.2     1  UNL1       -0.2734
     25 N          64.8421   86.0025   15.0023 N.1     1  UNL1       -0.1942
     26 C          64.2686   87.0575   14.1034 C.1     1  UNL1        0.0925
@<TRIPOS>BOND
     1    25    26    3
     2    17    26    1
     3    17    18    1
     4    19    18    1
     5    19    20    1
     6    21    20    1
     7    21    22    1
     8    22    23   am
     9    23    24    2
    10    23     1    1
    11     1     2    1
    12     1     5    1
    13     5     6    1
    14     6     7    1
    15     7     8    1
    16     8     9    1
    17     9    10    1
    18    10    11    1
    19    11    12    1
    20    11    13    1
    21    11    14    1
    22     9    15    1
    23    22    17    1
    24    14     5    1
    25    21    19    1
    26    15     5    1
    27    13     7    1
    28     2     3    1
    29     2     4    1
    30    12    16    1
@<TRIPOS>MOLECULE
*****
 26 30 0 0 0
SMALL
GASTEIGER

@<TRIPOS>ATOM
      1 C          63.1511   89.6102   13.3151 C.3     1  UNL1        0.1285
      2 N          61.8153   90.0265   13.8558 N.3     1  UNL1       -0.3150
      3 H          61.8186   91.0308   14.0339 H       1  UNL1        0.1192
      4 H          61.6302   89.5275   14.7260 H       1  UNL1        0.1192
      5 C          64.2325   90.6313   13.1198 C.3     1  UNL1        0.0237
      6 C          64.2936   91.4252   11.8486 C.3     1  UNL1        0.0019
      7 C          65.3749   92.4463   11.6533 C.3     1  UNL1        0.0024
      8 C          66.3951   92.6735   12.7292 C.3     1  UNL1        0.0002
      9 C          66.3339   91.8796   14.0004 C.3     1  UNL1        0.0024
     10 C          63.8271   90.8708   12.1278 C.3     1  UNL1        0.0269
     11 C          63.2734   91.1980   10.7727 C.3     1  UNL1        0.0884
     12 O          62.2532   90.9708    9.6968 O.3     1  UNL1       -0.3867
     13 C          64.3547   92.2191   10.5774 C.3     1  UNL1        0.0269
     14 C          63.2123   90.4041   12.0439 C.3     1  UNL1        0.0287
     15 C          65.2526   90.8585   14.1957 C.3     1  UNL1        0.0019
     16 H          62.4354   91.5607    8.9486 H       1  UNL1        0.2102
     17 C          63.7078   87.4654   15.5297 C.3     1  UNL1        0.1672
     18 C          64.0016   86.1815   16.2478 C.3     1  UNL1        0.0372
     19 C          64.1438   85.0978   15.2203 C.3     1  UNL1        0.0226
     20 C          64.2282   84.2453   13.9890 C.3     1  UNL1        0.0216
     21 C          63.9378   85.7119   13.8674 C.3     1  UNL1        0.0764
     22 N          63.6684   87.1751   14.0586 N.am    1  UNL1       -0.2691
     23 C          63.4056   88.1729   12.9698 C.2     1  UNL1        0.2403
     24 O          63.3974   87.7333   11.5357 O.2     1  UNL1       -0.2734
     25 N          63.2749   90.1432   16.8110 N.1     1  UNL1       -0.1942
     26 C          63.4913   88.8043   16.1703 C.1     1  UNL1        0.0925
@<TRIPOS>BOND
     1    25    26    3
     2    17    26    1
     3    17    18    1
     4    19    18    1
     5    19    20    1
     6    21    20    1
     7    21    22    1
     8    22    23   am
     9    23    24    2
    10    23     1    1
    11     1     2    1
    12     1     5    1
    13     5     6    1
    14     6     7    1
    15     7     8    1
    16     8     9    1
    17     9    10    1
    18    10    11    1
    19    11    12    1
    20    11    13    1
    21    11    14    1
    22     9    15    1
    23    22    17    1
    24    14     5    1
    25    21    19    1
    26    15     5    1
    27    13     7    1
    28     2     3    1
    29     2     4    1
    30    12    16    1
