@<TRIPOS>MOLECULE
*****
 31 35 0 0 0
SMALL
GASTEIGER

@<TRIPOS>ATOM
      1 C          63.8651   91.2417   11.8624 C.ar    1  UNL1        0.1646
      2 N          64.0522   89.8997   12.5060 N.ar    1  UNL1       -0.2224
      3 C          63.1283   88.9293   11.8317 C.ar    1  UNL1        0.1074
      4 C          62.3702   89.6715   10.7713 C.ar    1  UNL1        0.0588
      5 S          62.8256   91.1006   10.7903 S.2     1  UNL1       -0.0508
      6 C          62.9872   87.4726   12.1601 C.ar    1  UNL1        0.1026
      7 C          62.2311   86.5651   11.2356 C.ar    1  UNL1        0.0224
      8 C          62.0900   85.1084   11.5639 C.ar    1  UNL1        0.0239
      9 C          62.7051   84.5589   12.8169 C.ar    1  UNL1        0.1189
     10 C          63.4613   85.4664   13.7414 C.ar    1  UNL1        0.2416
     11 N          63.6024   86.9232   13.4130 N.ar    1  UNL1       -0.2089
     12 N          62.5641   83.1021   13.1453 N.ar    1  UNL1       -0.2826
     13 C          62.2068   82.5310   14.4855 C.ar    1  UNL1        0.1826
     14 N          62.1775   81.0366   14.3596 N.ar    1  UNL1       -0.2280
     15 C          62.5166   80.6842   12.9416 C.ar    1  UNL1        0.0786
     16 C          62.6019   79.2983   12.3738 C.3     1  UNL1        0.0538
     17 C          62.7556   81.9607   12.1911 C.ar    1  UNL1        0.0963
     18 O          64.0764   84.9170   14.9943 O.3     1  UNL1       -0.4551
     19 C          63.8164   85.5841   16.3124 C.3     1  UNL1        0.2543
     20 N          64.5903   92.5031   12.2269 N.pl3   1  UNL1       -0.2786
     21 H          64.1305   93.3713   12.1627 H       1  UNL1        0.1555
     22 N          67.2257   92.3507   11.8071 N.ar    1  UNL1       -0.2383
     23 N          68.4396   92.3133   12.6876 N.ar    1  UNL1       -0.1729
     24 C          67.9800   92.3814   14.1138 C.ar    1  UNL1        0.0773
     25 C          66.4821   92.4608   14.1148 C.ar    1  UNL1        0.0244
     26 C          66.0159   92.4418   12.6892 C.ar    1  UNL1        0.1275
     27 C          66.0225   92.5288   15.5411 C.3     1  UNL1        0.0308
     28 C          67.2363   92.4915   16.4215 C.3     1  UNL1        0.0112
     29 C          68.4461   92.4004   15.5394 C.3     1  UNL1        0.0477
     30 C          68.5195   92.2790    9.5553 C.3     1  UNL1        0.0285
     31 C          67.2222   92.3049   10.3079 C.3     1  UNL1        0.1289
@<TRIPOS>BOND
     1    30    31    1
     2    31    22    1
     3    22    23   ar
     4    23    24   ar
     5    24    25   ar
     6    25    26   ar
     7    26    20    1
     8    20     1    1
     9     1     2   ar
    10     2     3   ar
    11     3     6    1
    12     6     7   ar
    13     7     8   ar
    14     8     9   ar
    15     9    12    1
    16    12    13   ar
    17    13    14   ar
    18    14    15   ar
    19    15    16    1
    20    15    17   ar
    21     9    10   ar
    22    10    18    1
    23    18    19    1
    24    10    11   ar
    25     3     4   ar
    26     4     5   ar
    27    25    27    1
    28    27    28    1
    29    28    29    1
    30    26    22   ar
    31     5     1   ar
    32    29    24    1
    33    11     6   ar
    34    17    12   ar
    35    20    21    1
@<TRIPOS>MOLECULE
*****
 31 35 0 0 0
SMALL
GASTEIGER

@<TRIPOS>ATOM
      1 C          63.6941   86.9735   14.9124 C.ar    1  UNL1        0.1646
      2 N          64.2511   87.8639   13.8414 N.ar    1  UNL1       -0.2224
      3 C          64.2500   89.2709   14.3613 C.ar    1  UNL1        0.1074
      4 C          63.6923   89.2501   15.7536 C.ar    1  UNL1        0.0588
      5 S          63.3488   87.8302   16.0942 S.2     1  UNL1       -0.0508
      6 C          64.7234   90.4854   13.6191 C.ar    1  UNL1        0.1026
      7 C          63.9962   90.9440   12.3900 C.ar    1  UNL1        0.0224
      8 C          64.4695   92.1585   11.6478 C.ar    1  UNL1        0.0239
      9 C          65.6702   92.9144   12.1347 C.ar    1  UNL1        0.1189
     10 C          66.3974   92.4558   13.3638 C.ar    1  UNL1        0.2416
     11 N          65.9240   91.2413   14.1061 N.ar    1  UNL1       -0.2089
     12 N          66.1436   94.1289   11.3925 N.ar    1  UNL1       -0.2826
     13 C          66.1501   95.5348   11.9154 C.ar    1  UNL1        0.1826
     14 N          66.7042   96.4256   10.8431 N.ar    1  UNL1       -0.2280
     15 C          67.0401   95.5701    9.6577 C.ar    1  UNL1        0.0786
     16 C          67.6205   96.0499    8.3604 C.3     1  UNL1        0.0538
     17 C          66.6936   94.1507    9.9972 C.ar    1  UNL1        0.0963
     18 O          67.5980   93.2117   13.8508 O.3     1  UNL1       -0.4551
     19 C          67.7773   93.4704   15.3174 C.3     1  UNL1        0.2543
     20 N          63.5141   85.4873   14.8182 N.pl3   1  UNL1       -0.2786
     21 H          63.6229   84.9264   15.6199 H       1  UNL1        0.1555
     22 N          63.1871   83.3871   13.1973 N.ar    1  UNL1       -0.2383
     23 N          62.7734   83.2055   11.7669 N.ar    1  UNL1       -0.1729
     24 C          62.4990   84.5618   11.1880 C.ar    1  UNL1        0.0773
     25 C          62.7431   85.5817   12.2605 C.ar    1  UNL1        0.0244
     26 C          63.1683   84.8557   13.5023 C.ar    1  UNL1        0.1275
     27 C          62.4687   86.9380   11.6816 C.3     1  UNL1        0.0308
     28 C          62.0550   86.7564   10.2513 C.3     1  UNL1        0.0112
     29 C          62.0738   85.2878    9.9462 C.3     1  UNL1        0.0477
     30 C          63.2820   80.8613   13.7979 C.3     1  UNL1        0.0285
     31 C          63.5549   82.2925   14.1545 C.3     1  UNL1        0.1289
@<TRIPOS>BOND
     1    30    31    1
     2    31    22    1
     3    22    23   ar
     4    23    24   ar
     5    24    25   ar
     6    25    26   ar
     7    26    20    1
     8    20     1    1
     9     1     2   ar
    10     2     3   ar
    11     3     6    1
    12     6     7   ar
    13     7     8   ar
    14     8     9   ar
    15     9    12    1
    16    12    13   ar
    17    13    14   ar
    18    14    15   ar
    19    15    16    1
    20    15    17   ar
    21     9    10   ar
    22    10    18    1
    23    18    19    1
    24    10    11   ar
    25     3     4   ar
    26     4     5   ar
    27    25    27    1
    28    27    28    1
    29    28    29    1
    30    26    22   ar
    31     5     1   ar
    32    29    24    1
    33    11     6   ar
    34    17    12   ar
    35    20    21    1
@<TRIPOS>MOLECULE
*****
 31 35 0 0 0
SMALL
GASTEIGER

@<TRIPOS>ATOM
      1 C          60.3938   88.3693   11.1430 C.ar    1  UNL1        0.1646
      2 N          61.8433   88.5603   11.4788 N.ar    1  UNL1       -0.2224
      3 C          61.9890   89.8852   12.1669 C.ar    1  UNL1        0.1074
      4 C          60.6297   90.5130   12.2562 C.ar    1  UNL1        0.0588
      5 S          59.6438   89.5761   11.6234 S.2     1  UNL1       -0.0508
      6 C          63.2692   90.4781   12.6761 C.ar    1  UNL1        0.1026
      7 C          63.8781   89.9678   13.9485 C.ar    1  UNL1        0.0224
      8 C          65.1584   90.5607   14.4578 C.ar    1  UNL1        0.0239
      9 C          65.8299   91.6638   13.6947 C.ar    1  UNL1        0.1189
     10 C          65.2210   92.1740   12.4223 C.ar    1  UNL1        0.2416
     11 N          63.9406   91.5812   11.9130 N.ar    1  UNL1       -0.2089
     12 N          67.1101   92.2567   14.2039 N.ar    1  UNL1       -0.2826
     13 C          68.4915   91.9059   13.7364 C.ar    1  UNL1        0.1826
     14 N          69.4689   92.7370   14.5137 N.ar    1  UNL1       -0.2280
     15 C          68.6915   93.6013   15.4616 C.ar    1  UNL1        0.0786
     16 C          69.2704   94.5891   16.4308 C.3     1  UNL1        0.0538
     17 C          67.2337   93.3045   15.2701 C.ar    1  UNL1        0.0963
     18 O          65.8924   93.2772   11.6592 O.3     1  UNL1       -0.4551
     19 C          66.7295   92.9557   10.4568 C.3     1  UNL1        0.2543
     20 N          59.7990   87.1802   10.4486 N.pl3   1  UNL1       -0.2786
     21 H          58.8792   86.8976   10.6571 H       1  UNL1        0.1555
     22 N          60.3777   86.4144    7.9539 N.ar    1  UNL1       -0.2383
     23 N          61.4128   85.5255    7.3304 N.ar    1  UNL1       -0.1729
     24 C          62.2800   84.9835    8.4276 C.ar    1  UNL1        0.0773
     25 C          61.7811   85.5373    9.7293 C.ar    1  UNL1        0.0244
     26 C          60.6054   86.4217    9.4365 C.ar    1  UNL1        0.1275
     27 C          62.6483   84.9953   10.8266 C.3     1  UNL1        0.0308
     28 C          63.6833   84.1064   10.2031 C.3     1  UNL1        0.0112
     29 C          63.4557   84.0991    8.7205 C.3     1  UNL1        0.0477
     30 C          59.2843   88.6639    7.2509 C.3     1  UNL1        0.0285
     31 C          59.3038   87.1643    7.2231 C.3     1  UNL1        0.1289
@<TRIPOS>BOND
     1    30    31    1
     2    31    22    1
     3    22    23   ar
     4    23    24   ar
     5    24    25   ar
     6    25    26   ar
     7    26    20    1
     8    20     1    1
     9     1     2   ar
    10     2     3   ar
    11     3     6    1
    12     6     7   ar
    13     7     8   ar
    14     8     9   ar
    15     9    12    1
    16    12    13   ar
    17    13    14   ar
    18    14    15   ar
    19    15    16    1
    20    15    17   ar
    21     9    10   ar
    22    10    18    1
    23    18    19    1
    24    10    11   ar
    25     3     4   ar
    26     4     5   ar
    27    25    27    1
    28    27    28    1
    29    28    29    1
    30    26    22   ar
    31     5     1   ar
    32    29    24    1
    33    11     6   ar
    34    17    12   ar
    35    20    21    1
@<TRIPOS>MOLECULE
*****
 31 35 0 0 0
SMALL
GASTEIGER

@<TRIPOS>ATOM
      1 C          61.5044   87.1271   10.8975 C.ar    1  UNL1        0.1646
      2 N          62.7406   87.5418   11.6390 N.ar    1  UNL1       -0.2224
      3 C          62.6039   88.9930   11.9930 C.ar    1  UNL1        0.1074
      4 C          61.2833   89.4752   11.4704 C.ar    1  UNL1        0.0588
      5 S          60.6037   88.3220   10.7933 S.2     1  UNL1       -0.0508
      6 C          63.6111   89.8172   12.7388 C.ar    1  UNL1        0.1026
      7 C          64.1178   89.3557   14.0731 C.ar    1  UNL1        0.0224
      8 C          65.1250   90.1799   14.8189 C.ar    1  UNL1        0.0239
      9 C          65.6256   91.4656   14.2304 C.ar    1  UNL1        0.1189
     10 C          65.1190   91.9271   12.8961 C.ar    1  UNL1        0.2416
     11 N          64.1117   91.1029   12.1503 N.ar    1  UNL1       -0.2089
     12 N          66.6328   92.2899   14.9762 N.ar    1  UNL1       -0.2826
     13 C          66.4104   92.9766   16.2910 C.ar    1  UNL1        0.1826
     14 N          67.6794   93.6832   16.6654 N.ar    1  UNL1       -0.2280
     15 C          68.6862   93.4331   15.5820 C.ar    1  UNL1        0.0786
     16 C          70.0929   93.9530   15.5485 C.3     1  UNL1        0.0538
     17 C          68.0394   92.5720   14.5380 C.ar    1  UNL1        0.0963
     18 O          65.6195   93.2129   12.3076 O.3     1  UNL1       -0.4551
     19 C          66.5030   93.1891   11.0957 C.3     1  UNL1        0.2543
     20 N          61.2190   85.7579   10.3555 N.pl3   1  UNL1       -0.2786
     21 H          60.3177   85.5366   10.0267 H       1  UNL1        0.1555
     22 N          63.1294   84.3595    9.1147 N.ar    1  UNL1       -0.2383
     23 N          64.0939   83.2861    9.5245 N.ar    1  UNL1       -0.1729
     24 C          63.8672   82.9893   10.9773 C.ar    1  UNL1        0.0773
     25 C          62.7626   83.8790   11.4654 C.ar    1  UNL1        0.0244
     26 C          62.3067   84.7259   10.3143 C.ar    1  UNL1        0.1275
     27 C          62.5359   83.5822   12.9181 C.3     1  UNL1        0.0308
     28 C          63.5004   82.5089   13.3278 C.3     1  UNL1        0.0112
     29 C          64.3232   82.1424   12.1284 C.3     1  UNL1        0.0477
     30 C          61.6933   84.9292    7.0260 C.3     1  UNL1        0.0285
     31 C          63.0089   84.9607    7.7459 C.3     1  UNL1        0.1289
@<TRIPOS>BOND
     1    30    31    1
     2    31    22    1
     3    22    23   ar
     4    23    24   ar
     5    24    25   ar
     6    25    26   ar
     7    26    20    1
     8    20     1    1
     9     1     2   ar
    10     2     3   ar
    11     3     6    1
    12     6     7   ar
    13     7     8   ar
    14     8     9   ar
    15     9    12    1
    16    12    13   ar
    17    13    14   ar
    18    14    15   ar
    19    15    16    1
    20    15    17   ar
    21     9    10   ar
    22    10    18    1
    23    18    19    1
    24    10    11   ar
    25     3     4   ar
    26     4     5   ar
    27    25    27    1
    28    27    28    1
    29    28    29    1
    30    26    22   ar
    31     5     1   ar
    32    29    24    1
    33    11     6   ar
    34    17    12   ar
    35    20    21    1
@<TRIPOS>MOLECULE
*****
 31 35 0 0 0
SMALL
GASTEIGER

@<TRIPOS>ATOM
      1 C          64.7873   91.2181   14.4184 C.ar    1  UNL1        0.1646
      2 N          64.8323   89.8386   13.8309 N.ar    1  UNL1       -0.2224
      3 C          64.0307   88.9312   14.7165 C.ar    1  UNL1        0.1074
      4 C          63.4903   89.7499   15.8513 C.ar    1  UNL1        0.0588
      5 S          63.9579   91.1632   15.6671 S.2     1  UNL1       -0.0508
      6 C          63.8086   87.4630   14.5044 C.ar    1  UNL1        0.1026
      7 C          63.9677   86.5073   15.6496 C.ar    1  UNL1        0.0224
      8 C          63.7456   85.0391   15.4376 C.ar    1  UNL1        0.0239
      9 C          63.3644   84.5265   14.0804 C.ar    1  UNL1        0.1189
     10 C          63.2053   85.4822   12.9352 C.ar    1  UNL1        0.2416
     11 N          63.4274   86.9505   13.1472 N.ar    1  UNL1       -0.2089
     12 N          63.1423   83.0583   13.8683 N.ar    1  UNL1       -0.2826
     13 C          64.1105   82.1022   13.2372 C.ar    1  UNL1        0.1826
     14 N          63.4795   80.7414   13.2290 N.ar    1  UNL1       -0.2280
     15 C          62.1213   80.8565   13.8551 C.ar    1  UNL1        0.0786
     16 C          61.1432   79.7362   14.0515 C.3     1  UNL1        0.0538
     17 C          61.9129   82.2884   14.2502 C.ar    1  UNL1        0.0963
     18 O          62.8241   84.9696   11.5780 O.3     1  UNL1       -0.4551
     19 C          62.2108   85.8970   10.5712 C.3     1  UNL1        0.2543
     20 N          65.4545   92.4381   13.8561 N.pl3   1  UNL1       -0.2786
     21 H          65.0521   93.3262   13.9924 H       1  UNL1        0.1555
     22 N          68.0555   91.8606   13.6414 N.ar    1  UNL1       -0.2383
     23 N          69.0563   91.8739   12.5240 N.ar    1  UNL1       -0.1729
     24 C          68.3540   92.3264   11.2782 C.ar    1  UNL1        0.0773
     25 C          66.9193   92.5928   11.6255 C.ar    1  UNL1        0.0244
     26 C          66.7348   92.3050   13.0860 C.ar    1  UNL1        0.1275
     27 C          66.2171   93.0453   10.3797 C.3     1  UNL1        0.0308
     28 C          67.2178   93.0586    9.2624 C.3     1  UNL1        0.0112
     29 C          68.5385   92.6142    9.8177 C.3     1  UNL1        0.0477
     30 C          68.3079   92.5128   16.1435 C.3     1  UNL1        0.0285
     31 C          68.3277   91.4714   15.0642 C.3     1  UNL1        0.1289
@<TRIPOS>BOND
     1    30    31    1
     2    31    22    1
     3    22    23   ar
     4    23    24   ar
     5    24    25   ar
     6    25    26   ar
     7    26    20    1
     8    20     1    1
     9     1     2   ar
    10     2     3   ar
    11     3     6    1
    12     6     7   ar
    13     7     8   ar
    14     8     9   ar
    15     9    12    1
    16    12    13   ar
    17    13    14   ar
    18    14    15   ar
    19    15    16    1
    20    15    17   ar
    21     9    10   ar
    22    10    18    1
    23    18    19    1
    24    10    11   ar
    25     3     4   ar
    26     4     5   ar
    27    25    27    1
    28    27    28    1
    29    28    29    1
    30    26    22   ar
    31     5     1   ar
    32    29    24    1
    33    11     6   ar
    34    17    12   ar
    35    20    21    1
@<TRIPOS>MOLECULE
*****
 31 35 0 0 0
SMALL
GASTEIGER

@<TRIPOS>ATOM
      1 C          63.7091   86.8915   15.2025 C.ar    1  UNL1        0.1646
      2 N          64.3084   87.7417   14.1216 N.ar    1  UNL1       -0.2224
      3 C          64.2155   89.1750   14.5541 C.ar    1  UNL1        0.1074
      4 C          63.5589   89.2107   15.9023 C.ar    1  UNL1        0.0588
      5 S          63.2459   87.7994   16.3030 S.2     1  UNL1       -0.0508
      6 C          64.6951   90.3638   13.7752 C.ar    1  UNL1        0.1026
      7 C          63.9420   90.8176   12.5600 C.ar    1  UNL1        0.0224
      8 C          64.4215   92.0064   11.7810 C.ar    1  UNL1        0.0239
      9 C          65.6542   92.7414   12.2173 C.ar    1  UNL1        0.1189
     10 C          66.4073   92.2876   13.4326 C.ar    1  UNL1        0.2416
     11 N          65.9278   91.0987   14.2116 N.ar    1  UNL1       -0.2089
     12 N          66.1338   93.9303   11.4384 N.ar    1  UNL1       -0.2826
     13 C          66.1862   95.3455   11.9327 C.ar    1  UNL1        0.1826
     14 N          66.7300   96.2024   10.8282 N.ar    1  UNL1       -0.2280
     15 C          67.0136   95.3168    9.6513 C.ar    1  UNL1        0.0786
     16 C          67.5683   95.7581    8.3293 C.3     1  UNL1        0.0538
     17 C          66.6451   93.9125   10.0284 C.ar    1  UNL1        0.0963
     18 O          67.6400   93.0225   13.8689 O.3     1  UNL1       -0.4551
     19 C          67.7657   93.5018   15.2847 C.3     1  UNL1        0.2543
     20 N          63.5934   85.3961   15.1857 N.pl3   1  UNL1       -0.2786
     21 H          63.7458   84.8813   16.0109 H       1  UNL1        0.1555
     22 N          62.8397   85.3347   12.6219 N.ar    1  UNL1       -0.2383
     23 N          62.5858   84.2506   11.6167 N.ar    1  UNL1       -0.1729
     24 C          62.8348   82.9311   12.2851 C.ar    1  UNL1        0.0773
     25 C          63.2426   83.1996   13.7034 C.ar    1  UNL1        0.0244
     26 C          63.2456   84.6850   13.9116 C.ar    1  UNL1        0.1275
     27 C          63.4916   81.8800   14.3719 C.3     1  UNL1        0.0308
     28 C          63.2378   80.7960   13.3666 C.3     1  UNL1        0.0112
     29 C          62.8319   81.4456   12.0769 C.3     1  UNL1        0.0477
     30 C          62.2410   87.3123   11.0470 C.3     1  UNL1        0.0285
     31 C          62.7104   86.8093   12.3800 C.3     1  UNL1        0.1289
@<TRIPOS>BOND
     1    30    31    1
     2    31    22    1
     3    22    23   ar
     4    23    24   ar
     5    24    25   ar
     6    25    26   ar
     7    26    20    1
     8    20     1    1
     9     1     2   ar
    10     2     3   ar
    11     3     6    1
    12     6     7   ar
    13     7     8   ar
    14     8     9   ar
    15     9    12    1
    16    12    13   ar
    17    13    14   ar
    18    14    15   ar
    19    15    16    1
    20    15    17   ar
    21     9    10   ar
    22    10    18    1
    23    18    19    1
    24    10    11   ar
    25     3     4   ar
    26     4     5   ar
    27    25    27    1
    28    27    28    1
    29    28    29    1
    30    26    22   ar
    31     5     1   ar
    32    29    24    1
    33    11     6   ar
    34    17    12   ar
    35    20    21    1
@<TRIPOS>MOLECULE
*****
 31 35 0 0 0
SMALL
GASTEIGER

@<TRIPOS>ATOM
      1 C          58.8963   89.5940    6.3578 C.ar    1  UNL1        0.1646
      2 N          60.1170   90.0234    5.5991 N.ar    1  UNL1       -0.2224
      3 C          59.7350   91.1788    4.7221 C.ar    1  UNL1        0.1074
      4 C          58.2783   91.4635    4.9388 C.ar    1  UNL1        0.0588
      5 S          57.7600   90.4840    5.9497 S.2     1  UNL1       -0.0508
      6 C          60.6493   91.9195    3.7918 C.ar    1  UNL1        0.1026
      7 C          62.0863   91.5080    3.6672 C.ar    1  UNL1        0.0224
      8 C          63.0007   92.2486    2.7370 C.ar    1  UNL1        0.0239
      9 C          62.4780   93.4008    1.9312 C.ar    1  UNL1        0.1189
     10 C          61.0409   93.8123    2.0558 C.ar    1  UNL1        0.2416
     11 N          60.1265   93.0717    2.9861 N.ar    1  UNL1       -0.2089
     12 N          63.3923   94.1415    1.0009 N.ar    1  UNL1       -0.2826
     13 C          63.5892   93.8521   -0.4577 C.ar    1  UNL1        0.1826
     14 N          64.5888   94.8334   -0.9941 N.ar    1  UNL1       -0.2280
     15 C          65.0096   95.7293    0.1329 C.ar    1  UNL1        0.0786
     16 C          65.9967   96.8552    0.0427 C.3     1  UNL1        0.0538
     17 C          64.2702   95.3017    1.3659 C.ar    1  UNL1        0.0963
     18 O          60.5182   94.9645    1.2500 O.3     1  UNL1       -0.4551
     19 C          60.4738   96.3393    1.8484 C.3     1  UNL1        0.2543
     20 N          58.8246   88.4716    7.3503 N.pl3   1  UNL1       -0.2786
     21 H          57.9763   87.9920    7.4906 H       1  UNL1        0.1555
     22 N          60.6509   88.8495    9.2651 N.ar    1  UNL1       -0.2383
     23 N          61.8547   88.0950    9.7465 N.ar    1  UNL1       -0.1729
     24 C          61.9930   86.8591    8.9079 C.ar    1  UNL1        0.0773
     25 C          60.8748   86.8497    7.9081 C.ar    1  UNL1        0.0244
     26 C          60.0453   88.0798    8.1289 C.ar    1  UNL1        0.1275
     27 C          61.0131   85.6138    7.0695 C.3     1  UNL1        0.0308
     28 C          62.2169   84.8594    7.5509 C.3     1  UNL1        0.0112
     29 C          62.8225   85.6290    8.6871 C.3     1  UNL1        0.0477
     30 C          59.7892   90.2505   11.2762 C.3     1  UNL1        0.0285
     31 C          60.1421   90.1459    9.8221 C.3     1  UNL1        0.1289
@<TRIPOS>BOND
     1    30    31    1
     2    31    22    1
     3    22    23   ar
     4    23    24   ar
     5    24    25   ar
     6    25    26   ar
     7    26    20    1
     8    20     1    1
     9     1     2   ar
    10     2     3   ar
    11     3     6    1
    12     6     7   ar
    13     7     8   ar
    14     8     9   ar
    15     9    12    1
    16    12    13   ar
    17    13    14   ar
    18    14    15   ar
    19    15    16    1
    20    15    17   ar
    21     9    10   ar
    22    10    18    1
    23    18    19    1
    24    10    11   ar
    25     3     4   ar
    26     4     5   ar
    27    25    27    1
    28    27    28    1
    29    28    29    1
    30    26    22   ar
    31     5     1   ar
    32    29    24    1
    33    11     6   ar
    34    17    12   ar
    35    20    21    1
@<TRIPOS>MOLECULE
*****
 31 35 0 0 0
SMALL
GASTEIGER

@<TRIPOS>ATOM
      1 C          58.9753   89.5822    6.3761 C.ar    1  UNL1        0.1646
      2 N          60.1806   89.9982    5.5859 N.ar    1  UNL1       -0.2224
      3 C          59.8000   91.1837    4.7495 C.ar    1  UNL1        0.1074
      4 C          58.3596   91.5005    5.0227 C.ar    1  UNL1        0.0588
      5 S          57.8498   90.5107    6.0280 S.2     1  UNL1       -0.0508
      6 C          60.7017   91.9227    3.8057 C.ar    1  UNL1        0.1026
      7 C          62.1411   91.5216    3.6747 C.ar    1  UNL1        0.0224
      8 C          63.0428   92.2605    2.7309 C.ar    1  UNL1        0.0239
      9 C          62.5051   93.4007    1.9179 C.ar    1  UNL1        0.1189
     10 C          61.0657   93.8019    2.0489 C.ar    1  UNL1        0.2416
     11 N          60.1639   93.0629    2.9927 N.ar    1  UNL1       -0.2089
     12 N          63.4067   94.1397    0.9740 N.ar    1  UNL1       -0.2826
     13 C          63.5862   93.8458   -0.4859 C.ar    1  UNL1        0.1826
     14 N          64.5776   94.8268   -1.0378 N.ar    1  UNL1       -0.2280
     15 C          65.0108   95.7270    0.0811 C.ar    1  UNL1        0.0786
     16 C          65.9950   96.8541   -0.0249 C.3     1  UNL1        0.0538
     17 C          64.2872   95.3024    1.3244 C.ar    1  UNL1        0.0963
     18 O          60.5279   94.9420    1.2359 O.3     1  UNL1       -0.4551
     19 C          59.4894   94.6887    0.1837 C.3     1  UNL1        0.2543
     20 N          58.9074   88.4385    7.3443 N.pl3   1  UNL1       -0.2786
     21 H          58.0980   87.8800    7.3904 H       1  UNL1        0.1555
     22 N          60.9334   86.9182    8.1980 N.ar    1  UNL1       -0.2383
     23 N          61.9746   87.0431    9.2706 N.ar    1  UNL1       -0.1729
     24 C          61.7575   88.3481    9.9776 C.ar    1  UNL1        0.0773
     25 C          60.5821   89.0297    9.3421 C.ar    1  UNL1        0.0244
     26 C          60.0727   88.1460    8.2423 C.ar    1  UNL1        0.1275
     27 C          60.3649   90.3347   10.0491 C.3     1  UNL1        0.0308
     28 C          61.4061   90.4596   11.1216 C.3     1  UNL1        0.0112
     29 C          62.2668   89.2319   11.0774 C.3     1  UNL1        0.0477
     30 C          61.9364   84.8477    6.9910 C.3     1  UNL1        0.0285
     31 C          60.7798   85.7675    7.2482 C.3     1  UNL1        0.1289
@<TRIPOS>BOND
     1    30    31    1
     2    31    22    1
     3    22    23   ar
     4    23    24   ar
     5    24    25   ar
     6    25    26   ar
     7    26    20    1
     8    20     1    1
     9     1     2   ar
    10     2     3   ar
    11     3     6    1
    12     6     7   ar
    13     7     8   ar
    14     8     9   ar
    15     9    12    1
    16    12    13   ar
    17    13    14   ar
    18    14    15   ar
    19    15    16    1
    20    15    17   ar
    21     9    10   ar
    22    10    18    1
    23    18    19    1
    24    10    11   ar
    25     3     4   ar
    26     4     5   ar
    27    25    27    1
    28    27    28    1
    29    28    29    1
    30    26    22   ar
    31     5     1   ar
    32    29    24    1
    33    11     6   ar
    34    17    12   ar
    35    20    21    1
@<TRIPOS>MOLECULE
*****
 31 35 0 0 0
SMALL
GASTEIGER

@<TRIPOS>ATOM
      1 C          60.9416   88.0582    9.7589 C.ar    1  UNL1        0.1646
      2 N          62.1263   88.2959   10.6478 N.ar    1  UNL1       -0.2224
      3 C          62.0369   89.6976   11.1742 C.ar    1  UNL1        0.1074
      4 C          60.7970   90.3262   10.6108 C.ar    1  UNL1        0.0588
      5 S          60.1201   89.3130    9.7360 S.2     1  UNL1       -0.0508
      6 C          63.0156   90.3553   12.1014 C.ar    1  UNL1        0.1026
      7 C          64.1218   91.2025   11.5461 C.ar    1  UNL1        0.0224
      8 C          65.1006   91.8601   12.4731 C.ar    1  UNL1        0.0239
      9 C          64.9731   91.6706   13.9557 C.ar    1  UNL1        0.1189
     10 C          63.8669   90.8234   14.5110 C.ar    1  UNL1        0.2416
     11 N          62.8880   90.1657   13.5839 N.ar    1  UNL1       -0.2089
     12 N          65.9518   92.3282   14.8829 N.ar    1  UNL1       -0.2826
     13 C          65.7691   92.5320   16.3577 C.ar    1  UNL1        0.1826
     14 N          66.9895   93.2272   16.8842 N.ar    1  UNL1       -0.2280
     15 C          67.9264   93.4532   15.7349 C.ar    1  UNL1        0.0786
     16 C          69.2690   94.1180   15.8094 C.3     1  UNL1        0.0538
     17 C          67.2851   92.8976   14.4979 C.ar    1  UNL1        0.0963
     18 O          63.7393   90.6338   15.9935 O.3     1  UNL1       -0.4551
     19 C          63.2757   89.3178   16.5442 C.3     1  UNL1        0.2543
     20 N          60.6327   86.7886    9.0223 N.pl3   1  UNL1       -0.2786
     21 H          59.7756   86.6908    8.5478 H       1  UNL1        0.1555
     22 N          62.1086   84.9288    7.7944 N.ar    1  UNL1       -0.2383
     23 N          63.0976   83.8936    8.2421 N.ar    1  UNL1       -0.1729
     24 C          63.2298   83.9930    9.7330 C.ar    1  UNL1        0.0773
     25 C          62.3225   85.0895   10.2067 C.ar    1  UNL1        0.0244
     26 C          61.6296   85.6679    9.0086 C.ar    1  UNL1        0.1275
     27 C          62.4546   85.1889   11.6976 C.3     1  UNL1        0.0308
     28 C          63.4436   84.1538   12.1452 C.3     1  UNL1        0.0112
     29 C          63.9227   83.4147   10.9311 C.3     1  UNL1        0.0477
     30 C          62.0290   84.2006    5.3018 C.3     1  UNL1        0.0285
     31 C          61.6749   85.1805    6.3808 C.3     1  UNL1        0.1289
@<TRIPOS>BOND
     1    30    31    1
     2    31    22    1
     3    22    23   ar
     4    23    24   ar
     5    24    25   ar
     6    25    26   ar
     7    26    20    1
     8    20     1    1
     9     1     2   ar
    10     2     3   ar
    11     3     6    1
    12     6     7   ar
    13     7     8   ar
    14     8     9   ar
    15     9    12    1
    16    12    13   ar
    17    13    14   ar
    18    14    15   ar
    19    15    16    1
    20    15    17   ar
    21     9    10   ar
    22    10    18    1
    23    18    19    1
    24    10    11   ar
    25     3     4   ar
    26     4     5   ar
    27    25    27    1
    28    27    28    1
    29    28    29    1
    30    26    22   ar
    31     5     1   ar
    32    29    24    1
    33    11     6   ar
    34    17    12   ar
    35    20    21    1
