@<TRIPOS>MOLECULE
*****
 31 35 0 0 0
SMALL
GASTEIGER

@<TRIPOS>ATOM
      1 C          63.3705   88.1647   13.6808 C.ar    1  UNL1        0.1515
      2 N          64.0610   87.6756   14.9194 N.ar    1  UNL1       -0.2060
      3 C          64.4221   86.2260   15.0539 C.ar    1  UNL1        0.2211
      4 N          64.0928   85.2654   13.9498 N.ar    1  UNL1       -0.1422
      5 N          63.4023   85.7546   12.7113 N.ar    1  UNL1       -0.2242
      6 C          62.9540   85.0478   11.4665 C.ar    1  UNL1        0.1049
      7 C          62.3157   86.0606   10.5627 C.ar    1  UNL1        0.0718
      8 C          62.3697   87.3933   11.2489 C.ar    1  UNL1        0.0040
      9 C          63.0412   87.2042   12.5768 C.ar    1  UNL1        0.1107
     10 C          61.7270   85.7884    9.2102 C.ar    1  UNL1        0.2508
     11 N          60.3517   86.1753    8.7532 N.ar    1  UNL1       -0.1072
     12 N          60.1849   85.7076    7.3378 N.ar    1  UNL1       -0.1114
     13 C          61.4571   85.0316    6.9201 C.ar    1  UNL1        0.2270
     14 C          61.7286   84.4141    5.5802 C.3     1  UNL1        0.0967
     15 O          62.4101   85.0816    8.0772 O.2     1  UNL1       -0.4195
     16 C          61.8443   88.6879   10.7030 C.3     1  UNL1        0.0241
     17 C          62.7370   89.5751    9.8869 C.3     1  UNL1        0.0047
     18 C          60.4263   89.0954   10.9733 C.3     1  UNL1        0.0047
     19 N          63.0094   89.6144   13.5463 N.pl3   1  UNL1       -0.2955
     20 H          62.0669   89.8794   13.4433 H       1  UNL1        0.1537
     21 C          68.9250   94.1266   16.0499 C.3     1  UNL1        0.0521
     22 C          67.8191   93.4158   15.3278 C.ar    1  UNL1        0.0611
     23 C          66.9794   92.3018   15.8790 C.ar    1  UNL1        0.0178
     24 C          66.0000   91.8916   14.8195 C.ar    1  UNL1        0.0364
     25 C          64.9250   90.8457   14.7971 C.ar    1  UNL1        0.0192
     26 C          64.0845   90.6603   13.5687 C.ar    1  UNL1        0.0668
     27 C          64.3189   91.5208   12.3627 C.ar    1  UNL1        0.0883
     28 N          65.3939   92.5667   12.3850 N.ar    1  UNL1       -0.3364
     29 C          66.2344   92.7521   13.6134 C.ar    1  UNL1        0.1402
     30 N          67.3587   93.6940   13.9276 N.ar    1  UNL1       -0.2328
     31 H          65.5477   93.1314   11.5934 H       1  UNL1        0.1674
@<TRIPOS>BOND
     1    21    22    1
     2    22    23   ar
     3    23    24   ar
     4    24    25   ar
     5    25    26   ar
     6    26    19    1
     7    19     1    1
     8     1     2   ar
     9     2     3   ar
    10     3     4   ar
    11     4     5   ar
    12     5     6   ar
    13     6     7   ar
    14     7    10    1
    15    10    11   ar
    16    11    12   ar
    17    12    13   ar
    18    13    14    1
    19    13    15   ar
    20     7     8   ar
    21     8    16    1
    22    16    17    1
    23    16    18    1
    24     8     9   ar
    25    26    27   ar
    26    27    28   ar
    27    28    29   ar
    28    29    30   ar
    29    30    22   ar
    30    29    24    1
    31     9     1   ar
    32     9     5   ar
    33    15    10   ar
    34    19    20    1
    35    28    31    1
@<TRIPOS>MOLECULE
*****
 31 35 0 0 0
SMALL
GASTEIGER

@<TRIPOS>ATOM
      1 C          63.3586   88.1479   13.6858 C.ar    1  UNL1        0.1515
      2 N          64.0714   87.6615   14.9128 N.ar    1  UNL1       -0.2060
      3 C          64.4641   86.2185   15.0295 C.ar    1  UNL1        0.2211
      4 N          64.1440   85.2620   13.9193 N.ar    1  UNL1       -0.1422
      5 N          63.4312   85.7484   12.6924 N.ar    1  UNL1       -0.2242
      6 C          62.9854   85.0443   11.4451 C.ar    1  UNL1        0.1049
      7 C          62.3172   86.0521   10.5576 C.ar    1  UNL1        0.0718
      8 C          62.3500   87.3791   11.2563 C.ar    1  UNL1        0.0040
      9 C          63.0385   87.1913   12.5756 C.ar    1  UNL1        0.1107
     10 C          61.7208   85.7807    9.2082 C.ar    1  UNL1        0.2508
     11 N          60.3461   86.1755    8.7562 N.ar    1  UNL1       -0.1072
     12 N          60.1702   85.7056    7.3427 N.ar    1  UNL1       -0.1114
     13 C          61.4362   85.0204    6.9211 C.ar    1  UNL1        0.2270
     14 C          61.6979   84.3980    5.5815 C.3     1  UNL1        0.0967
     15 O          62.3945   85.0668    8.0740 O.2     1  UNL1       -0.4195
     16 C          61.7923   88.6675   10.7283 C.3     1  UNL1        0.0241
     17 C          60.4358   89.1335   11.1675 C.3     1  UNL1        0.0047
     18 C          62.5910   89.4901    9.7611 C.3     1  UNL1        0.0047
     19 N          62.9659   89.5909   13.5691 N.pl3   1  UNL1       -0.2955
     20 H          62.0231   89.8545   13.6734 H       1  UNL1        0.1537
     21 C          67.1983   95.0557    9.8481 C.3     1  UNL1        0.0521
     22 C          66.5684   94.0624   10.7790 C.ar    1  UNL1        0.0611
     23 C          65.3919   93.1855   10.4679 C.ar    1  UNL1        0.0178
     24 C          65.1008   92.3527   11.6810 C.ar    1  UNL1        0.0364
     25 C          64.0570   91.3114   11.9567 C.ar    1  UNL1        0.0192
     26 C          64.0098   90.6323   13.2933 C.ar    1  UNL1        0.0668
     27 C          65.0063   90.9945   14.3542 C.ar    1  UNL1        0.0883
     28 N          66.0501   92.0359   14.0786 N.ar    1  UNL1       -0.3364
     29 C          66.0974   92.7150   12.7420 C.ar    1  UNL1        0.1402
     30 N          67.0044   93.7716   12.1845 N.ar    1  UNL1       -0.2328
     31 H          66.7042   92.2736   14.7749 H       1  UNL1        0.1674
@<TRIPOS>BOND
     1    21    22    1
     2    22    23   ar
     3    23    24   ar
     4    24    25   ar
     5    25    26   ar
     6    26    19    1
     7    19     1    1
     8     1     2   ar
     9     2     3   ar
    10     3     4   ar
    11     4     5   ar
    12     5     6   ar
    13     6     7   ar
    14     7    10    1
    15    10    11   ar
    16    11    12   ar
    17    12    13   ar
    18    13    14    1
    19    13    15   ar
    20     7     8   ar
    21     8    16    1
    22    16    17    1
    23    16    18    1
    24     8     9   ar
    25    26    27   ar
    26    27    28   ar
    27    28    29   ar
    28    29    30   ar
    29    30    22   ar
    30    29    24    1
    31     9     1   ar
    32     9     5   ar
    33    15    10   ar
    34    19    20    1
    35    28    31    1
@<TRIPOS>MOLECULE
*****
 31 35 0 0 0
SMALL
GASTEIGER

@<TRIPOS>ATOM
      1 C          62.9489   88.3772   12.2437 C.ar    1  UNL1        0.1515
      2 N          62.5709   89.2992   11.1224 N.ar    1  UNL1       -0.2060
      3 C          62.1142   88.7356    9.8095 C.ar    1  UNL1        0.2211
      4 N          62.0356   87.2499    9.6178 N.ar    1  UNL1       -0.1422
      5 N          62.4136   86.3280   10.7390 N.ar    1  UNL1       -0.2242
      6 C          62.4368   84.8318   10.8438 C.ar    1  UNL1        0.1049
      7 C          62.9079   84.4708   12.2214 C.ar    1  UNL1        0.0718
      8 C          63.1757   85.7438   12.9681 C.ar    1  UNL1        0.0040
      9 C          62.8702   86.8917   12.0520 C.ar    1  UNL1        0.1107
     10 C          63.0807   83.0808   12.7580 C.ar    1  UNL1        0.2508
     11 N          64.2576   82.5776   13.5402 N.ar    1  UNL1       -0.1072
     12 N          64.0112   81.1358   13.8723 N.ar    1  UNL1       -0.1114
     13 C          62.6820   80.7478   13.2954 C.ar    1  UNL1        0.2270
     14 C          62.0406   79.3952   13.3905 C.3     1  UNL1        0.0967
     15 O          62.1070   81.9499   12.6068 O.2     1  UNL1       -0.4195
     16 C          63.6634   85.8504   14.3825 C.3     1  UNL1        0.0241
     17 C          62.7939   85.3850   15.5127 C.3     1  UNL1        0.0047
     18 C          65.0206   86.4225   14.6669 C.3     1  UNL1        0.0047
     19 N          63.4055   88.9409   13.5566 N.pl3   1  UNL1       -0.2955
     20 H          63.1216   88.5183   14.3992 H       1  UNL1        0.1537
     21 C          68.9329   94.0366   15.8160 C.3     1  UNL1        0.0521
     22 C          67.8319   93.2494   15.1694 C.ar    1  UNL1        0.0611
     23 C          67.2887   91.9358   15.6483 C.ar    1  UNL1        0.0178
     24 C          66.2018   91.5121   14.7054 C.ar    1  UNL1        0.0364
     25 C          65.3126   90.3044   14.6764 C.ar    1  UNL1        0.0192
     26 C          64.2948   90.1486   13.5856 C.ar    1  UNL1        0.0668
     27 C          64.1662   91.2004   12.5239 C.ar    1  UNL1        0.0883
     28 N          65.0554   92.4080   12.5530 N.ar    1  UNL1       -0.3364
     29 C          66.0732   92.5639   13.6437 C.ar    1  UNL1        0.1402
     30 N          67.0807   93.6376   13.9305 N.ar    1  UNL1       -0.2328
     31 H          64.9710   93.0983   11.8561 H       1  UNL1        0.1674
@<TRIPOS>BOND
     1    21    22    1
     2    22    23   ar
     3    23    24   ar
     4    24    25   ar
     5    25    26   ar
     6    26    19    1
     7    19     1    1
     8     1     2   ar
     9     2     3   ar
    10     3     4   ar
    11     4     5   ar
    12     5     6   ar
    13     6     7   ar
    14     7    10    1
    15    10    11   ar
    16    11    12   ar
    17    12    13   ar
    18    13    14    1
    19    13    15   ar
    20     7     8   ar
    21     8    16    1
    22    16    17    1
    23    16    18    1
    24     8     9   ar
    25    26    27   ar
    26    27    28   ar
    27    28    29   ar
    28    29    30   ar
    29    30    22   ar
    30    29    24    1
    31     9     1   ar
    32     9     5   ar
    33    15    10   ar
    34    19    20    1
    35    28    31    1
@<TRIPOS>MOLECULE
*****
 31 35 0 0 0
SMALL
GASTEIGER

@<TRIPOS>ATOM
      1 C          63.4488   88.8558   13.6262 C.ar    1  UNL1        0.1515
      2 N          64.2421   88.0600   14.6199 N.ar    1  UNL1       -0.2060
      3 C          64.3646   86.5732   14.4635 C.ar    1  UNL1        0.2211
      4 N          63.6938   85.8822   13.3134 N.ar    1  UNL1       -0.1422
      5 N          62.9006   86.6781   12.3198 N.ar    1  UNL1       -0.2242
      6 C          62.1345   86.2762   11.0943 C.ar    1  UNL1        0.1049
      7 C          61.5385   87.5146   10.4934 C.ar    1  UNL1        0.0718
      8 C          61.9363   88.6818   11.3474 C.ar    1  UNL1        0.0040
      9 C          62.7780   88.1648   12.4762 C.ar    1  UNL1        0.1107
     10 C          60.6932   87.5752    9.2557 C.ar    1  UNL1        0.2508
     11 N          60.0260   86.4107    8.5858 N.ar    1  UNL1       -0.1072
     12 N          59.2872   86.9267    7.3868 N.ar    1  UNL1       -0.1114
     13 C          59.4978   88.4101    7.3156 C.ar    1  UNL1        0.2270
     14 C          58.9377   89.3311    6.2724 C.3     1  UNL1        0.0967
     15 O          60.3667   88.8109    8.4706 O.2     1  UNL1       -0.4195
     16 C          61.5585   90.1146   11.1138 C.3     1  UNL1        0.0241
     17 C          60.1882   90.5990   11.4844 C.3     1  UNL1        0.0047
     18 C          62.5512   91.0629   10.5094 C.3     1  UNL1        0.0047
     19 N          63.3263   90.3426   13.7827 N.pl3   1  UNL1       -0.2955
     20 H          62.5681   90.8197   13.3742 H       1  UNL1        0.1537
     21 C          70.0932   93.8217   15.7135 C.3     1  UNL1        0.0521
     22 C          68.7123   93.2462   15.6038 C.ar    1  UNL1        0.0611
     23 C          68.1648   92.4849   14.4331 C.ar    1  UNL1        0.0178
     24 C          66.7506   92.0992   14.7513 C.ar    1  UNL1        0.0364
     25 C          65.7180   91.3394   13.9726 C.ar    1  UNL1        0.0192
     26 C          64.3589   91.1024   14.5614 C.ar    1  UNL1        0.0668
     27 C          64.0324   91.6252   15.9289 C.ar    1  UNL1        0.0883
     28 N          65.0650   92.3850   16.7076 N.ar    1  UNL1       -0.3364
     29 C          66.4241   92.6220   16.1188 C.ar    1  UNL1        0.1402
     30 N          67.6365   93.3309   16.6457 N.ar    1  UNL1       -0.2328
     31 H          64.8507   92.7282   17.6051 H       1  UNL1        0.1674
@<TRIPOS>BOND
     1    21    22    1
     2    22    23   ar
     3    23    24   ar
     4    24    25   ar
     5    25    26   ar
     6    26    19    1
     7    19     1    1
     8     1     2   ar
     9     2     3   ar
    10     3     4   ar
    11     4     5   ar
    12     5     6   ar
    13     6     7   ar
    14     7    10    1
    15    10    11   ar
    16    11    12   ar
    17    12    13   ar
    18    13    14    1
    19    13    15   ar
    20     7     8   ar
    21     8    16    1
    22    16    17    1
    23    16    18    1
    24     8     9   ar
    25    26    27   ar
    26    27    28   ar
    27    28    29   ar
    28    29    30   ar
    29    30    22   ar
    30    29    24    1
    31     9     1   ar
    32     9     5   ar
    33    15    10   ar
    34    19    20    1
    35    28    31    1
@<TRIPOS>MOLECULE
*****
 31 35 0 0 0
SMALL
GASTEIGER

@<TRIPOS>ATOM
      1 C          62.6674   86.2407   12.5332 C.ar    1  UNL1        0.1515
      2 N          62.0382   85.8277   11.2356 N.ar    1  UNL1       -0.2060
      3 C          61.8555   86.8328   10.1373 C.ar    1  UNL1        0.2211
      4 N          62.3018   88.2510   10.3366 N.ar    1  UNL1       -0.1422
      5 N          62.9310   88.6639   11.6341 N.ar    1  UNL1       -0.2242
      6 C          63.4650   89.9800   12.1166 C.ar    1  UNL1        0.1049
      7 C          63.9779   89.7882   13.5131 C.ar    1  UNL1        0.0718
      8 C          63.7608   88.3536   13.8937 C.ar    1  UNL1        0.0040
      9 C          63.1137   87.6588   12.7324 C.ar    1  UNL1        0.1107
     10 C          64.5988   90.8454   14.3773 C.ar    1  UNL1        0.2508
     11 N          63.9191   91.5850   15.4913 N.ar    1  UNL1       -0.1072
     12 N          64.9086   92.5452   16.0816 N.ar    1  UNL1       -0.1114
     13 C          66.2000   92.3991   15.3326 C.ar    1  UNL1        0.2270
     14 C          67.4614   93.1686   15.5914 C.3     1  UNL1        0.0967
     15 O          66.0085   91.3486   14.2793 O.2     1  UNL1       -0.4195
     16 C          64.1265   87.7243   15.2052 C.3     1  UNL1        0.0241
     17 C          63.4347   88.1575   16.4637 C.3     1  UNL1        0.0047
     18 C          65.1840   86.6619   15.2584 C.3     1  UNL1        0.0047
     19 N          62.8502   85.2355   13.6314 N.pl3   1  UNL1       -0.2955
     20 H          63.0301   85.5382   14.5508 H       1  UNL1        0.1537
     21 C          63.0252   78.4416    9.7028 C.3     1  UNL1        0.0521
     22 C          62.9201   79.5756   10.6789 C.ar    1  UNL1        0.0611
     23 C          63.1534   81.0257   10.3743 C.ar    1  UNL1        0.0178
     24 C          62.9408   81.8050   11.6382 C.ar    1  UNL1        0.0364
     25 C          63.0322   83.2713   11.9407 C.ar    1  UNL1        0.0192
     26 C          62.7588   83.7691   13.3289 C.ar    1  UNL1        0.0668
     27 C          62.3941   82.8007   14.4148 C.ar    1  UNL1        0.0883
     28 N          62.3027   81.3344   14.1123 N.ar    1  UNL1       -0.3364
     29 C          62.5761   80.8365   12.7240 C.ar    1  UNL1        0.1402
     30 N          62.5633   79.4587   12.1312 N.ar    1  UNL1       -0.2328
     31 H          62.0633   80.6987   14.8250 H       1  UNL1        0.1674
@<TRIPOS>BOND
     1    21    22    1
     2    22    23   ar
     3    23    24   ar
     4    24    25   ar
     5    25    26   ar
     6    26    19    1
     7    19     1    1
     8     1     2   ar
     9     2     3   ar
    10     3     4   ar
    11     4     5   ar
    12     5     6   ar
    13     6     7   ar
    14     7    10    1
    15    10    11   ar
    16    11    12   ar
    17    12    13   ar
    18    13    14    1
    19    13    15   ar
    20     7     8   ar
    21     8    16    1
    22    16    17    1
    23    16    18    1
    24     8     9   ar
    25    26    27   ar
    26    27    28   ar
    27    28    29   ar
    28    29    30   ar
    29    30    22   ar
    30    29    24    1
    31     9     1   ar
    32     9     5   ar
    33    15    10   ar
    34    19    20    1
    35    28    31    1
@<TRIPOS>MOLECULE
*****
 31 35 0 0 0
SMALL
GASTEIGER

@<TRIPOS>ATOM
      1 C          63.1648   88.3875   12.4225 C.ar    1  UNL1        0.1515
      2 N          62.7116   89.3183   11.3370 N.ar    1  UNL1       -0.2060
      3 C          62.0656   88.7693   10.0996 C.ar    1  UNL1        0.2211
      4 N          61.8729   87.2894    9.9476 N.ar    1  UNL1       -0.1422
      5 N          62.3261   86.3587   11.0331 N.ar    1  UNL1       -0.2242
      6 C          62.2696   84.8655   11.1634 C.ar    1  UNL1        0.1049
      7 C          62.8805   84.4916   12.4813 C.ar    1  UNL1        0.0718
      8 C          63.3147   85.7538   13.1656 C.ar    1  UNL1        0.0040
      9 C          62.9721   86.9078   12.2706 C.ar    1  UNL1        0.1107
     10 C          63.0309   83.0999   13.0203 C.ar    1  UNL1        0.2508
     11 N          64.0923   82.6328   13.9718 N.ar    1  UNL1       -0.1072
     12 N          63.8637   81.1752   14.2419 N.ar    1  UNL1       -0.1114
     13 C          62.6610   80.7414   13.4574 C.ar    1  UNL1        0.2270
     14 C          62.0758   79.3605   13.4324 C.3     1  UNL1        0.0967
     15 O          62.1464   81.9309   12.7024 O.2     1  UNL1       -0.4195
     16 C          63.9755   85.8460   14.5090 C.3     1  UNL1        0.0241
     17 C          63.1398   85.9358   15.7513 C.3     1  UNL1        0.0047
     18 C          65.4721   85.8483   14.6101 C.3     1  UNL1        0.0047
     19 N          63.8107   88.9366   13.6600 N.pl3   1  UNL1       -0.2955
     20 H          63.7589   88.4358   14.5060 H       1  UNL1        0.1537
     21 C          66.6482   95.7496   10.9851 C.3     1  UNL1        0.0521
     22 C          66.2407   94.5194   11.7404 C.ar    1  UNL1        0.0611
     23 C          65.3991   93.3970   11.2094 C.ar    1  UNL1        0.0178
     24 C          65.2415   92.3795   12.3002 C.ar    1  UNL1        0.0364
     25 C          64.5165   91.0674   12.3517 C.ar    1  UNL1        0.0192
     26 C          64.5357   90.2488   13.6084 C.ar    1  UNL1        0.0668
     27 C          65.2799   90.7423   14.8137 C.ar    1  UNL1        0.0883
     28 N          66.0049   92.0544   14.7622 N.ar    1  UNL1       -0.3364
     29 C          65.9857   92.8730   13.5054 C.ar    1  UNL1        0.1402
     30 N          66.6032   94.1955   13.1595 N.ar    1  UNL1       -0.2328
     31 H          66.4933   92.3784   15.5532 H       1  UNL1        0.1674
@<TRIPOS>BOND
     1    21    22    1
     2    22    23   ar
     3    23    24   ar
     4    24    25   ar
     5    25    26   ar
     6    26    19    1
     7    19     1    1
     8     1     2   ar
     9     2     3   ar
    10     3     4   ar
    11     4     5   ar
    12     5     6   ar
    13     6     7   ar
    14     7    10    1
    15    10    11   ar
    16    11    12   ar
    17    12    13   ar
    18    13    14    1
    19    13    15   ar
    20     7     8   ar
    21     8    16    1
    22    16    17    1
    23    16    18    1
    24     8     9   ar
    25    26    27   ar
    26    27    28   ar
    27    28    29   ar
    28    29    30   ar
    29    30    22   ar
    30    29    24    1
    31     9     1   ar
    32     9     5   ar
    33    15    10   ar
    34    19    20    1
    35    28    31    1
@<TRIPOS>MOLECULE
*****
 31 35 0 0 0
SMALL
GASTEIGER

@<TRIPOS>ATOM
      1 C          63.1174   87.8239   12.7736 C.ar    1  UNL1        0.1515
      2 N          62.8348   89.0959   12.0304 N.ar    1  UNL1       -0.2060
      3 C          62.3401   89.0436   10.6153 C.ar    1  UNL1        0.2211
      4 N          62.1280   87.7193    9.9434 N.ar    1  UNL1       -0.1422
      5 N          62.4106   86.4474   10.6866 N.ar    1  UNL1       -0.2242
      6 C          62.2965   85.0057   10.2885 C.ar    1  UNL1        0.1049
      7 C          62.7207   84.1670   11.4575 C.ar    1  UNL1        0.0718
      8 C          63.0969   85.0904   12.5781 C.ar    1  UNL1        0.0040
      9 C          62.9053   86.4997   12.1017 C.ar    1  UNL1        0.1107
     10 C          62.7614   82.6681   11.4987 C.ar    1  UNL1        0.2508
     11 N          62.6472   81.8164   12.7282 N.ar    1  UNL1       -0.1072
     12 N          62.7387   80.3798   12.3070 N.ar    1  UNL1       -0.1114
     13 C          62.9095   80.3435   10.8172 C.ar    1  UNL1        0.2270
     14 C          63.0428   79.1095    9.9748 C.3     1  UNL1        0.0967
     15 O          62.9235   81.7577   10.3177 O.2     1  UNL1       -0.4195
     16 C          63.5800   84.6770   13.9367 C.3     1  UNL1        0.0241
     17 C          65.0477   84.4950   14.1876 C.3     1  UNL1        0.0047
     18 C          62.5955   84.4455   15.0445 C.3     1  UNL1        0.0047
     19 N          63.6121   87.8763   14.1887 N.pl3   1  UNL1       -0.2955
     20 H          63.6136   87.0607   14.7401 H       1  UNL1        0.1537
     21 C          68.2167   94.0509   15.7036 C.3     1  UNL1        0.0521
     22 C          67.1536   92.9981   15.5964 C.ar    1  UNL1        0.0611
     23 C          67.2215   91.7592   14.7534 C.ar    1  UNL1        0.0178
     24 C          65.9459   90.9947   14.9493 C.ar    1  UNL1        0.0364
     25 C          65.4534   89.6998   14.3744 C.ar    1  UNL1        0.0192
     26 C          64.1047   89.1713   14.7636 C.ar    1  UNL1        0.0668
     27 C          63.2484   89.9376   15.7277 C.ar    1  UNL1        0.0883
     28 N          63.7409   91.2326   16.3026 N.ar    1  UNL1       -0.3364
     29 C          65.0896   91.7611   15.9134 C.ar    1  UNL1        0.1402
     30 N          65.8361   92.9992   16.3133 N.ar    1  UNL1       -0.2328
     31 H          63.1789   91.7356   16.9354 H       1  UNL1        0.1674
@<TRIPOS>BOND
     1    21    22    1
     2    22    23   ar
     3    23    24   ar
     4    24    25   ar
     5    25    26   ar
     6    26    19    1
     7    19     1    1
     8     1     2   ar
     9     2     3   ar
    10     3     4   ar
    11     4     5   ar
    12     5     6   ar
    13     6     7   ar
    14     7    10    1
    15    10    11   ar
    16    11    12   ar
    17    12    13   ar
    18    13    14    1
    19    13    15   ar
    20     7     8   ar
    21     8    16    1
    22    16    17    1
    23    16    18    1
    24     8     9   ar
    25    26    27   ar
    26    27    28   ar
    27    28    29   ar
    28    29    30   ar
    29    30    22   ar
    30    29    24    1
    31     9     1   ar
    32     9     5   ar
    33    15    10   ar
    34    19    20    1
    35    28    31    1
@<TRIPOS>MOLECULE
*****
 31 35 0 0 0
SMALL
GASTEIGER

@<TRIPOS>ATOM
      1 C          62.4132   88.3083   11.8457 C.ar    1  UNL1        0.1515
      2 N          61.7903   88.3573   10.4820 N.ar    1  UNL1       -0.2060
      3 C          62.0364   89.5355    9.5869 C.ar    1  UNL1        0.2211
      4 N          62.9055   90.6648   10.0555 N.ar    1  UNL1       -0.1422
      5 N          63.5284   90.6158   11.4192 N.ar    1  UNL1       -0.2242
      6 C          64.4236   91.5730   12.1487 C.ar    1  UNL1        0.1049
      7 C          64.7308   90.9865   13.4946 C.ar    1  UNL1        0.0718
      8 C          64.0253   89.6667   13.5969 C.ar    1  UNL1        0.0040
      9 C          63.2822   89.4376   12.3142 C.ar    1  UNL1        0.1107
     10 C          65.5922   91.6101   14.5525 C.ar    1  UNL1        0.2508
     11 N          65.1051   92.3190   15.7814 N.ar    1  UNL1       -0.1072
     12 N          66.3036   92.7814   16.5556 N.ar    1  UNL1       -0.1114
     13 C          67.5316   92.3584   15.8051 C.ar    1  UNL1        0.2270
     14 C          68.9503   92.6143   16.2199 C.3     1  UNL1        0.0967
     15 O          67.0919   91.6345   14.5672 O.2     1  UNL1       -0.4195
     16 C          64.0574   88.7388   14.7751 C.3     1  UNL1        0.0241
     17 C          64.7462   87.4109   14.6654 C.3     1  UNL1        0.0047
     18 C          63.4006   89.1389   16.0629 C.3     1  UNL1        0.0047
     19 N          62.1670   87.1301   12.7408 N.pl3   1  UNL1       -0.2955
     20 H          61.8374   87.2691   13.6580 H       1  UNL1        0.1537
     21 C          62.8033   79.3084   12.5419 C.3     1  UNL1        0.0521
     22 C          62.7668   80.7892   12.3052 C.ar    1  UNL1        0.0611
     23 C          62.3822   81.8336   13.3107 C.ar    1  UNL1        0.0178
     24 C          62.4862   83.1754   12.6484 C.ar    1  UNL1        0.0364
     25 C          62.2302   84.5654   13.1508 C.ar    1  UNL1        0.0192
     26 C          62.4231   85.7401   12.2383 C.ar    1  UNL1        0.0668
     27 C          62.8721   85.5249   10.8234 C.ar    1  UNL1        0.0883
     28 N          63.1281   84.1350   10.3209 N.ar    1  UNL1       -0.3364
     29 C          62.9352   82.9603   11.2334 C.ar    1  UNL1        0.1402
     30 N          63.1086   81.4855   11.0213 N.ar    1  UNL1       -0.2328
     31 H          63.4228   83.9938    9.3922 H       1  UNL1        0.1674
@<TRIPOS>BOND
     1    21    22    1
     2    22    23   ar
     3    23    24   ar
     4    24    25   ar
     5    25    26   ar
     6    26    19    1
     7    19     1    1
     8     1     2   ar
     9     2     3   ar
    10     3     4   ar
    11     4     5   ar
    12     5     6   ar
    13     6     7   ar
    14     7    10    1
    15    10    11   ar
    16    11    12   ar
    17    12    13   ar
    18    13    14    1
    19    13    15   ar
    20     7     8   ar
    21     8    16    1
    22    16    17    1
    23    16    18    1
    24     8     9   ar
    25    26    27   ar
    26    27    28   ar
    27    28    29   ar
    28    29    30   ar
    29    30    22   ar
    30    29    24    1
    31     9     1   ar
    32     9     5   ar
    33    15    10   ar
    34    19    20    1
    35    28    31    1
@<TRIPOS>MOLECULE
*****
 31 35 0 0 0
SMALL
GASTEIGER

@<TRIPOS>ATOM
      1 C          60.2132   89.0307    8.8398 C.ar    1  UNL1        0.1515
      2 N          59.9499   90.3856    9.4272 N.ar    1  UNL1       -0.2060
      3 C          60.4642   90.7227   10.7954 C.ar    1  UNL1        0.2211
      4 N          61.2417   89.7048   11.5762 N.ar    1  UNL1       -0.1422
      5 N          61.5049   88.3500   10.9888 N.ar    1  UNL1       -0.2242
      6 C          62.2352   87.1513   11.5177 C.ar    1  UNL1        0.1049
      7 C          62.1724   86.0734   10.4764 C.ar    1  UNL1        0.0718
      8 C          61.4032   86.6060    9.3039 C.ar    1  UNL1        0.0040
      9 C          60.9906   88.0129    9.6206 C.ar    1  UNL1        0.1107
     10 C          62.7732   84.7035   10.5880 C.ar    1  UNL1        0.2508
     11 N          63.8486   84.1381    9.7084 N.ar    1  UNL1       -0.1072
     12 N          64.1441   82.7437   10.1756 N.ar    1  UNL1       -0.1114
     13 C          63.2514   82.4474   11.3440 C.ar    1  UNL1        0.2270
     14 C          63.2128   81.1649   12.1212 C.3     1  UNL1        0.0967
     15 O          62.4042   83.6586   11.5989 O.2     1  UNL1       -0.4195
     16 C          61.0997   85.8621    8.0372 C.3     1  UNL1        0.0241
     17 C          59.6837   85.7463    7.5563 C.3     1  UNL1        0.0047
     18 C          62.2124   85.2342    7.2513 C.3     1  UNL1        0.0047
     19 N          59.6989   88.6937    7.4716 N.pl3   1  UNL1       -0.2955
     20 H          59.4735   87.7623    7.2461 H       1  UNL1        0.1537
     21 C          61.3178   93.8348    1.7645 C.3     1  UNL1        0.0521
     22 C          60.7420   92.9605    2.8388 C.ar    1  UNL1        0.0611
     23 C          61.4866   91.9208    3.6227 C.ar    1  UNL1        0.0178
     24 C          60.5254   91.2901    4.5862 C.ar    1  UNL1        0.0364
     25 C          60.6961   90.2080    5.6108 C.ar    1  UNL1        0.0192
     26 C          59.5282   89.7758    6.4470 C.ar    1  UNL1        0.0668
     27 C          58.1896   90.4258    6.2585 C.ar    1  UNL1        0.0883
     28 N          58.0188   91.5079    5.2339 N.ar    1  UNL1       -0.3364
     29 C          59.1867   91.9401    4.3978 C.ar    1  UNL1        0.1402
     30 N          59.3206   92.9724    3.3178 N.ar    1  UNL1       -0.2328
     31 H          57.1402   91.9345    5.1102 H       1  UNL1        0.1674
@<TRIPOS>BOND
     1    21    22    1
     2    22    23   ar
     3    23    24   ar
     4    24    25   ar
     5    25    26   ar
     6    26    19    1
     7    19     1    1
     8     1     2   ar
     9     2     3   ar
    10     3     4   ar
    11     4     5   ar
    12     5     6   ar
    13     6     7   ar
    14     7    10    1
    15    10    11   ar
    16    11    12   ar
    17    12    13   ar
    18    13    14    1
    19    13    15   ar
    20     7     8   ar
    21     8    16    1
    22    16    17    1
    23    16    18    1
    24     8     9   ar
    25    26    27   ar
    26    27    28   ar
    27    28    29   ar
    28    29    30   ar
    29    30    22   ar
    30    29    24    1
    31     9     1   ar
    32     9     5   ar
    33    15    10   ar
    34    19    20    1
    35    28    31    1
