@<TRIPOS>MOLECULE
*****
 25 27 0 0 0
SMALL
GASTEIGER

@<TRIPOS>ATOM
      1 N          64.4203   87.7145   14.6269 N.am    1  UNL1       -0.2969
      2 C          63.8966   89.1157   14.7385 C.2     1  UNL1        0.2461
      3 O          62.7967   89.4302   15.7088 O.2     1  UNL1       -0.2701
      4 H          65.1422   87.5081   13.9901 H       1  UNL1        0.1501
      5 C          64.4727   90.2024   13.8799 C.ar    1  UNL1        0.0534
      6 C          63.8069   90.5689   12.5867 C.ar    1  UNL1        0.0045
      7 C          64.3830   91.6555   11.7281 C.ar    1  UNL1        0.0001
      8 C          65.6250   92.3757   12.1628 C.ar    1  UNL1        0.0001
      9 C          66.2908   92.0093   13.4560 C.ar    1  UNL1        0.0001
     10 C          65.7146   90.9225   14.3146 C.ar    1  UNL1        0.0045
     11 C          66.2011   93.4624   11.3042 C.ar    1  UNL1        0.0031
     12 C          65.9818   94.9011   11.6676 C.ar    1  UNL1        0.0207
     13 C          66.5580   95.9877   10.8090 C.ar    1  UNL1        0.0989
     14 N          67.3535   95.6357    9.5870 N.ar    1  UNL1       -0.2423
     15 C          67.5728   94.1970    9.2235 C.ar    1  UNL1        0.0989
     16 C          66.9966   93.1104   10.0822 C.ar    1  UNL1        0.0207
     17 C          63.8442   86.6278   15.4855 C.3     1  UNL1        0.1167
     18 C          64.0238   83.4832   13.0712 C.ar    1  UNL1        0.1385
     19 C          63.0412   82.5622   13.7317 C.ar    1  UNL1        0.0369
     20 C          62.3263   82.9964   14.9768 C.ar    1  UNL1        0.0028
     21 C          62.5939   84.3516   15.5614 C.ar    1  UNL1       -0.0024
     22 C          63.5765   85.2726   14.9009 C.ar    1  UNL1        0.0005
     23 C          64.2914   84.8383   13.6558 C.ar    1  UNL1        0.0343
     24 C          64.0012   82.9848   10.5215 C.3     1  UNL1        0.2525
     25 O          64.7387   83.0489   11.8261 O.3     1  UNL1       -0.4714
@<TRIPOS>BOND
     1    24    25    1
     2    25    18    1
     3    18    19   ar
     4    19    20   ar
     5    20    21   ar
     6    21    22   ar
     7    22    17    1
     8    17     1    1
     9     1     2   am
    10     2     3    2
    11     2     5    1
    12     5     6   ar
    13     6     7   ar
    14     7     8   ar
    15     8    11    1
    16    11    12   ar
    17    12    13   ar
    18    13    14   ar
    19    14    15   ar
    20    15    16   ar
    21     8     9   ar
    22     9    10   ar
    23    22    23   ar
    24    23    18   ar
    25    10     5   ar
    26    16    11   ar
    27     1     4    1
@<TRIPOS>MOLECULE
*****
 25 27 0 0 0
SMALL
GASTEIGER

@<TRIPOS>ATOM
      1 N          64.2978   87.5160   14.4272 N.am    1  UNL1       -0.2969
      2 C          63.9873   88.9353   14.8004 C.2     1  UNL1        0.2461
      3 O          63.1520   89.2267   16.0118 O.2     1  UNL1       -0.2701
      4 H          64.8460   87.3247   13.6321 H       1  UNL1        0.1501
      5 C          64.5122   90.0632   13.9623 C.ar    1  UNL1        0.0534
      6 C          63.8421   90.4088   12.6656 C.ar    1  UNL1        0.0045
      7 C          64.3669   91.5367   11.8274 C.ar    1  UNL1        0.0001
      8 C          65.5619   92.3189   12.2860 C.ar    1  UNL1        0.0001
      9 C          66.2320   91.9732   13.5827 C.ar    1  UNL1        0.0001
     10 C          65.7071   90.8453   14.4209 C.ar    1  UNL1        0.0045
     11 C          66.0867   93.4467   11.4479 C.ar    1  UNL1        0.0031
     12 C          65.9720   94.8604   11.9361 C.ar    1  UNL1        0.0207
     13 C          66.4968   95.9882   11.0980 C.ar    1  UNL1        0.0989
     14 N          67.1364   95.7024    9.7716 N.ar    1  UNL1       -0.2423
     15 C          67.2512   94.2887    9.2834 C.ar    1  UNL1        0.0989
     16 C          66.7263   93.1609   10.1216 C.ar    1  UNL1        0.0207
     17 C          63.7729   86.3882   15.2653 C.3     1  UNL1        0.1167
     18 C          62.3826   82.7661   14.4299 C.ar    1  UNL1        0.1385
     19 C          63.4636   82.2486   13.5280 C.ar    1  UNL1        0.0369
     20 C          64.6478   83.1109   13.2052 C.ar    1  UNL1        0.0028
     21 C          64.7509   84.4907   13.7843 C.ar    1  UNL1       -0.0024
     22 C          63.6699   85.0082   14.6862 C.ar    1  UNL1        0.0005
     23 C          62.4857   84.1459   15.0090 C.ar    1  UNL1        0.0343
     24 C          60.9552   80.6430   13.9775 C.3     1  UNL1        0.2525
     25 O          61.1984   81.9038   14.7528 O.3     1  UNL1       -0.4714
@<TRIPOS>BOND
     1    24    25    1
     2    25    18    1
     3    18    19   ar
     4    19    20   ar
     5    20    21   ar
     6    21    22   ar
     7    22    17    1
     8    17     1    1
     9     1     2   am
    10     2     3    2
    11     2     5    1
    12     5     6   ar
    13     6     7   ar
    14     7     8   ar
    15     8    11    1
    16    11    12   ar
    17    12    13   ar
    18    13    14   ar
    19    14    15   ar
    20    15    16   ar
    21     8     9   ar
    22     9    10   ar
    23    22    23   ar
    24    23    18   ar
    25    10     5   ar
    26    16    11   ar
    27     1     4    1
@<TRIPOS>MOLECULE
*****
 25 27 0 0 0
SMALL
GASTEIGER

@<TRIPOS>ATOM
      1 N          61.1903   88.6578   11.7082 N.am    1  UNL1       -0.2969
      2 C          62.0244   89.7733   11.1513 C.2     1  UNL1        0.2461
      3 O          61.7097   90.3423    9.7996 O.2     1  UNL1       -0.2701
      4 H          61.3969   88.2843   12.5954 H       1  UNL1        0.1501
      5 C          63.1731   90.3197   11.9462 C.ar    1  UNL1        0.0534
      6 C          63.5331   89.7029   13.2653 C.ar    1  UNL1        0.0045
      7 C          64.6818   90.2493   14.0601 C.ar    1  UNL1        0.0001
      8 C          65.4706   91.4126   13.5359 C.ar    1  UNL1        0.0001
      9 C          65.1105   92.0294   12.2169 C.ar    1  UNL1        0.0001
     10 C          63.9618   91.4829   11.4220 C.ar    1  UNL1        0.0045
     11 C          66.6193   91.9591   14.3308 C.ar    1  UNL1        0.0031
     12 C          68.0035   91.9485   13.7530 C.ar    1  UNL1        0.0207
     13 C          69.1522   92.4949   14.5479 C.ar    1  UNL1        0.0989
     14 N          68.9167   93.0520   15.9206 N.ar    1  UNL1       -0.2423
     15 C          67.5325   93.0625   16.4984 C.ar    1  UNL1        0.0989
     16 C          66.3838   92.5160   15.7035 C.ar    1  UNL1        0.0207
     17 C          60.0416   88.1113   10.9133 C.3     1  UNL1        0.1167
     18 C          61.8617   85.6433    8.3942 C.ar    1  UNL1        0.1385
     19 C          60.8239   85.5205    7.3181 C.ar    1  UNL1        0.0369
     20 C          59.5253   86.2612    7.4405 C.ar    1  UNL1        0.0028
     21 C          59.2646   87.1249    8.6389 C.ar    1  UNL1       -0.0024
     22 C          60.3024   87.2477    9.7149 C.ar    1  UNL1        0.0005
     23 C          61.6009   86.5069    9.5925 C.ar    1  UNL1        0.0343
     24 C          63.6394   84.0375    9.3997 C.3     1  UNL1        0.2525
     25 O          63.1602   84.9025    8.2718 O.3     1  UNL1       -0.4714
@<TRIPOS>BOND
     1    24    25    1
     2    25    18    1
     3    18    19   ar
     4    19    20   ar
     5    20    21   ar
     6    21    22   ar
     7    22    17    1
     8    17     1    1
     9     1     2   am
    10     2     3    2
    11     2     5    1
    12     5     6   ar
    13     6     7   ar
    14     7     8   ar
    15     8    11    1
    16    11    12   ar
    17    12    13   ar
    18    13    14   ar
    19    14    15   ar
    20    15    16   ar
    21     8     9   ar
    22     9    10   ar
    23    22    23   ar
    24    23    18   ar
    25    10     5   ar
    26    16    11   ar
    27     1     4    1
@<TRIPOS>MOLECULE
*****
 25 27 0 0 0
SMALL
GASTEIGER

@<TRIPOS>ATOM
      1 N          63.7775   90.7653   13.9715 N.am    1  UNL1       -0.2969
      2 C          63.9356   89.2829   13.8049 C.2     1  UNL1        0.2461
      3 O          64.6937   88.4899   14.8277 O.2     1  UNL1       -0.2701
      4 H          63.2799   91.2858   13.3002 H       1  UNL1        0.1501
      5 C          63.3355   88.5937   12.6154 C.ar    1  UNL1        0.0534
      6 C          62.8811   89.3973   11.4332 C.ar    1  UNL1        0.0045
      7 C          62.2810   88.7081   10.2437 C.ar    1  UNL1        0.0001
      8 C          62.1354   87.2152   10.2365 C.ar    1  UNL1        0.0001
      9 C          62.5898   86.4115   11.4187 C.ar    1  UNL1        0.0001
     10 C          63.1899   87.1008   12.6082 C.ar    1  UNL1        0.0045
     11 C          61.5353   86.5259    9.0470 C.ar    1  UNL1        0.0031
     12 C          62.3609   85.5687    8.2394 C.ar    1  UNL1        0.0207
     13 C          61.7608   84.8795    7.0499 C.ar    1  UNL1        0.0989
     14 N          60.3351   85.1475    6.6680 N.ar    1  UNL1       -0.2423
     15 C          59.5096   86.1047    7.4757 C.ar    1  UNL1        0.0989
     16 C          60.1097   86.7939    8.6652 C.ar    1  UNL1        0.0207
     17 C          64.3775   91.4545   15.1610 C.3     1  UNL1        0.1167
     18 C          68.0791   92.0831   13.8751 C.ar    1  UNL1        0.1385
     19 C          68.6776   92.7772   15.0625 C.ar    1  UNL1        0.0369
     20 C          67.8427   93.0305   16.2827 C.ar    1  UNL1        0.0028
     21 C          66.4094   92.5896   16.3155 C.ar    1  UNL1       -0.0024
     22 C          65.8109   91.8955   15.1282 C.ar    1  UNL1        0.0005
     23 C          66.6458   91.6422   13.9080 C.ar    1  UNL1        0.0343
     24 C          68.2833   91.8639   11.2944 C.3     1  UNL1        0.2525
     25 O          68.9140   91.8298   12.6549 O.3     1  UNL1       -0.4714
@<TRIPOS>BOND
     1    24    25    1
     2    25    18    1
     3    18    19   ar
     4    19    20   ar
     5    20    21   ar
     6    21    22   ar
     7    22    17    1
     8    17     1    1
     9     1     2   am
    10     2     3    2
    11     2     5    1
    12     5     6   ar
    13     6     7   ar
    14     7     8   ar
    15     8    11    1
    16    11    12   ar
    17    12    13   ar
    18    13    14   ar
    19    14    15   ar
    20    15    16   ar
    21     8     9   ar
    22     9    10   ar
    23    22    23   ar
    24    23    18   ar
    25    10     5   ar
    26    16    11   ar
    27     1     4    1
@<TRIPOS>MOLECULE
*****
 25 27 0 0 0
SMALL
GASTEIGER

@<TRIPOS>ATOM
      1 N          64.0247   89.5862   14.6659 N.am    1  UNL1       -0.2969
      2 C          63.6877   89.0064   13.3241 C.2     1  UNL1        0.2461
      3 O          63.5322   89.9077   12.1353 O.2     1  UNL1       -0.2701
      4 H          64.1268   88.9946   15.4462 H       1  UNL1        0.1501
      5 C          63.5063   87.5253   13.1713 C.ar    1  UNL1        0.0534
      6 C          62.7220   86.9812   12.0142 C.ar    1  UNL1        0.0045
      7 C          62.5405   85.5002   11.8613 C.ar    1  UNL1        0.0001
      8 C          63.1434   84.5630   12.8656 C.ar    1  UNL1        0.0001
      9 C          63.9277   85.1071   14.0227 C.ar    1  UNL1        0.0001
     10 C          64.1091   86.5883   14.1755 C.ar    1  UNL1        0.0045
     11 C          62.9619   83.0820   12.7127 C.ar    1  UNL1        0.0031
     12 C          62.5231   82.2552   13.8848 C.ar    1  UNL1        0.0207
     13 C          62.3416   80.7741   13.7319 C.ar    1  UNL1        0.0989
     14 N          62.5991   80.1197   12.4069 N.ar    1  UNL1       -0.2423
     15 C          63.0379   80.9465   11.2348 C.ar    1  UNL1        0.0989
     16 C          63.2194   82.4277   11.3877 C.ar    1  UNL1        0.0207
     17 C          64.2061   91.0673   14.8188 C.3     1  UNL1        0.1167
     18 C          67.8968   92.0577   13.7472 C.ar    1  UNL1        0.1385
     19 C          68.3466   92.8246   14.9553 C.ar    1  UNL1        0.0369
     20 C          67.4162   93.0058   16.1179 C.ar    1  UNL1        0.0028
     21 C          66.0361   92.4200   16.0724 C.ar    1  UNL1       -0.0024
     22 C          65.5863   91.6531   14.8643 C.ar    1  UNL1        0.0005
     23 C          66.5167   91.4720   13.7017 C.ar    1  UNL1        0.0343
     24 C          68.2846   91.8535   11.1864 C.3     1  UNL1        0.2525
     25 O          68.8271   91.8766   12.5846 O.3     1  UNL1       -0.4714
@<TRIPOS>BOND
     1    24    25    1
     2    25    18    1
     3    18    19   ar
     4    19    20   ar
     5    20    21   ar
     6    21    22   ar
     7    22    17    1
     8    17     1    1
     9     1     2   am
    10     2     3    2
    11     2     5    1
    12     5     6   ar
    13     6     7   ar
    14     7     8   ar
    15     8    11    1
    16    11    12   ar
    17    12    13   ar
    18    13    14   ar
    19    14    15   ar
    20    15    16   ar
    21     8     9   ar
    22     9    10   ar
    23    22    23   ar
    24    23    18   ar
    25    10     5   ar
    26    16    11   ar
    27     1     4    1
@<TRIPOS>MOLECULE
*****
 25 27 0 0 0
SMALL
GASTEIGER

@<TRIPOS>ATOM
      1 N          62.4886   88.4807   11.2874 N.am    1  UNL1       -0.2969
      2 C          63.1545   89.3483   12.3141 C.2     1  UNL1        0.2461
      3 O          63.1072   88.9658   13.7638 O.2     1  UNL1       -0.2701
      4 H          62.5197   88.7317   10.3360 H       1  UNL1        0.1501
      5 C          63.8677   90.5982   11.8911 C.ar    1  UNL1        0.0534
      6 C          64.8441   91.2557   12.8208 C.ar    1  UNL1        0.0045
      7 C          65.5573   92.5056   12.3978 C.ar    1  UNL1        0.0001
      8 C          65.2941   93.0982   11.0451 C.ar    1  UNL1        0.0001
      9 C          64.3176   92.4407   10.1155 C.ar    1  UNL1        0.0001
     10 C          63.6044   91.1907   10.5385 C.ar    1  UNL1        0.0045
     11 C          66.0073   94.3481   10.6222 C.ar    1  UNL1        0.0031
     12 C          66.8702   94.3406    9.3952 C.ar    1  UNL1        0.0207
     13 C          67.5834   95.5906    8.9723 C.ar    1  UNL1        0.0989
     14 N          67.4337   96.8481    9.7762 N.ar    1  UNL1       -0.2423
     15 C          66.5708   96.8556   11.0032 C.ar    1  UNL1        0.0989
     16 C          65.8576   95.6055   11.4261 C.ar    1  UNL1        0.0207
     17 C          61.7754   87.2308   11.7104 C.3     1  UNL1        0.1167
     18 C          63.2927   83.6076   12.2765 C.ar    1  UNL1        0.1385
     19 C          63.5981   83.2044   10.8644 C.ar    1  UNL1        0.0369
     20 C          63.2960   84.1432    9.7342 C.ar    1  UNL1        0.0028
     21 C          62.6884   85.4854   10.0162 C.ar    1  UNL1       -0.0024
     22 C          62.3830   85.8886   11.4283 C.ar    1  UNL1        0.0005
     23 C          62.6852   84.9497   12.5585 C.ar    1  UNL1        0.0343
     24 C          62.4855   81.8973   14.0578 C.3     1  UNL1        0.2525
     25 O          63.5949   82.6687   13.4066 O.3     1  UNL1       -0.4714
@<TRIPOS>BOND
     1    24    25    1
     2    25    18    1
     3    18    19   ar
     4    19    20   ar
     5    20    21   ar
     6    21    22   ar
     7    22    17    1
     8    17     1    1
     9     1     2   am
    10     2     3    2
    11     2     5    1
    12     5     6   ar
    13     6     7   ar
    14     7     8   ar
    15     8    11    1
    16    11    12   ar
    17    12    13   ar
    18    13    14   ar
    19    14    15   ar
    20    15    16   ar
    21     8     9   ar
    22     9    10   ar
    23    22    23   ar
    24    23    18   ar
    25    10     5   ar
    26    16    11   ar
    27     1     4    1
@<TRIPOS>MOLECULE
*****
 25 27 0 0 0
SMALL
GASTEIGER

@<TRIPOS>ATOM
      1 N          63.9062   85.9969   14.2384 N.am    1  UNL1       -0.2969
      2 C          63.7533   87.2971   14.9707 C.2     1  UNL1        0.2461
      3 O          63.2157   87.3104   16.3710 O.2     1  UNL1       -0.2701
      4 H          64.2591   85.9881   13.3194 H       1  UNL1        0.1501
      5 C          64.1381   88.5838   14.3027 C.ar    1  UNL1        0.0534
      6 C          65.0758   89.5333   14.9877 C.ar    1  UNL1        0.0045
      7 C          65.4605   90.8200   14.3197 C.ar    1  UNL1        0.0001
      8 C          64.9075   91.1573   12.9667 C.ar    1  UNL1        0.0001
      9 C          63.9698   90.2078   12.2818 C.ar    1  UNL1        0.0001
     10 C          63.5851   88.9210   12.9498 C.ar    1  UNL1        0.0045
     11 C          65.2923   92.4441   12.2987 C.ar    1  UNL1        0.0031
     12 C          66.0762   93.4760   13.0540 C.ar    1  UNL1        0.0207
     13 C          66.4610   94.7628   12.3860 C.ar    1  UNL1        0.0989
     14 N          66.0618   95.0176   10.9627 N.ar    1  UNL1       -0.2423
     15 C          65.2778   93.9856   10.2074 C.ar    1  UNL1        0.0989
     16 C          64.8931   92.6988   10.8755 C.ar    1  UNL1        0.0207
     17 C          63.5215   84.7101   14.9064 C.3     1  UNL1        0.1167
     18 C          62.0232   81.2266   13.7358 C.ar    1  UNL1        0.1385
     19 C          62.7354   81.0364   12.4295 C.ar    1  UNL1        0.0369
     20 C          63.7096   82.0707   11.9487 C.ar    1  UNL1        0.0028
     21 C          63.9716   83.2953   12.7744 C.ar    1  UNL1       -0.0024
     22 C          63.2594   83.4855   14.0807 C.ar    1  UNL1        0.0005
     23 C          62.2853   82.4512   14.5614 C.ar    1  UNL1        0.0343
     24 C          59.5752   80.4639   14.1544 C.3     1  UNL1        0.2525
     25 O          61.0490   80.1923   14.2165 O.3     1  UNL1       -0.4714
@<TRIPOS>BOND
     1    24    25    1
     2    25    18    1
     3    18    19   ar
     4    19    20   ar
     5    20    21   ar
     6    21    22   ar
     7    22    17    1
     8    17     1    1
     9     1     2   am
    10     2     3    2
    11     2     5    1
    12     5     6   ar
    13     6     7   ar
    14     7     8   ar
    15     8    11    1
    16    11    12   ar
    17    12    13   ar
    18    13    14   ar
    19    14    15   ar
    20    15    16   ar
    21     8     9   ar
    22     9    10   ar
    23    22    23   ar
    24    23    18   ar
    25    10     5   ar
    26    16    11   ar
    27     1     4    1
@<TRIPOS>MOLECULE
*****
 25 27 0 0 0
SMALL
GASTEIGER

@<TRIPOS>ATOM
      1 N          62.9017   85.1623   14.9779 N.am    1  UNL1       -0.2969
      2 C          62.7906   86.2990   15.9503 C.2     1  UNL1        0.2461
      3 O          62.0318   86.1184   17.2316 O.2     1  UNL1       -0.2701
      4 H          63.3998   85.2808   14.1370 H       1  UNL1        0.1501
      5 C          63.4382   87.6162   15.6415 C.ar    1  UNL1        0.0534
      6 C          64.3689   87.7384   14.4715 C.ar    1  UNL1        0.0045
      7 C          65.0166   89.0556   14.1627 C.ar    1  UNL1        0.0001
      8 C          64.7336   90.2508   15.0239 C.ar    1  UNL1        0.0001
      9 C          63.8029   90.1286   16.1939 C.ar    1  UNL1        0.0001
     10 C          63.1552   88.8113   16.5027 C.ar    1  UNL1        0.0045
     11 C          65.3812   91.5680   14.7151 C.ar    1  UNL1        0.0031
     12 C          65.2986   92.1380   13.3301 C.ar    1  UNL1        0.0207
     13 C          65.9462   93.4552   13.0213 C.ar    1  UNL1        0.0989
     14 N          66.6766   94.2025   14.0975 N.ar    1  UNL1       -0.2423
     15 C          66.7593   93.6325   15.4825 C.ar    1  UNL1        0.0989
     16 C          66.1115   92.3152   15.7913 C.ar    1  UNL1        0.0207
     17 C          62.2541   83.8450   15.2867 C.3     1  UNL1        0.1167
     18 C          63.3706   81.6999   12.1400 C.ar    1  UNL1        0.1385
     19 C          62.6359   80.4175   12.3960 C.ar    1  UNL1        0.0369
     20 C          61.7739   80.2776   13.6156 C.ar    1  UNL1        0.0028
     21 C          61.6466   81.4201   14.5792 C.ar    1  UNL1       -0.0024
     22 C          62.3813   82.7025   14.3231 C.ar    1  UNL1        0.0005
     23 C          63.2433   82.8424   13.1035 C.ar    1  UNL1        0.0343
     24 C          64.2252   83.1206   10.1396 C.3     1  UNL1        0.2525
     25 O          64.2326   81.8398   10.9204 O.3     1  UNL1       -0.4714
@<TRIPOS>BOND
     1    24    25    1
     2    25    18    1
     3    18    19   ar
     4    19    20   ar
     5    20    21   ar
     6    21    22   ar
     7    22    17    1
     8    17     1    1
     9     1     2   am
    10     2     3    2
    11     2     5    1
    12     5     6   ar
    13     6     7   ar
    14     7     8   ar
    15     8    11    1
    16    11    12   ar
    17    12    13   ar
    18    13    14   ar
    19    14    15   ar
    20    15    16   ar
    21     8     9   ar
    22     9    10   ar
    23    22    23   ar
    24    23    18   ar
    25    10     5   ar
    26    16    11   ar
    27     1     4    1
@<TRIPOS>MOLECULE
*****
 25 27 0 0 0
SMALL
GASTEIGER

@<TRIPOS>ATOM
      1 N          63.1713   85.3068   15.2867 N.am    1  UNL1       -0.2969
      2 C          62.8999   86.5571   16.0699 C.2     1  UNL1        0.2461
      3 O          62.0014   86.5100   17.2701 O.2     1  UNL1       -0.2701
      4 H          63.7611   85.3377   14.4990 H       1  UNL1        0.1501
      5 C          63.5271   87.8543   15.6529 C.ar    1  UNL1        0.0534
      6 C          63.2455   89.1069   16.4285 C.ar    1  UNL1        0.0045
      7 C          63.8726   90.4041   16.0115 C.ar    1  UNL1        0.0001
      8 C          64.7813   90.4487   14.8189 C.ar    1  UNL1        0.0001
      9 C          65.0629   89.1960   14.0433 C.ar    1  UNL1        0.0001
     10 C          64.4357   87.8988   14.4604 C.ar    1  UNL1        0.0045
     11 C          65.4085   91.7459   14.4018 C.ar    1  UNL1        0.0031
     12 C          65.2337   92.2466   12.9987 C.ar    1  UNL1        0.0207
     13 C          65.8608   93.5438   12.5817 C.ar    1  UNL1        0.0989
     14 N          66.6627   94.3404   13.5678 N.ar    1  UNL1       -0.2423
     15 C          66.8375   93.8397   14.9710 C.ar    1  UNL1        0.0989
     16 C          66.2103   92.5424   15.3880 C.ar    1  UNL1        0.0207
     17 C          62.5442   84.0096   15.7038 C.3     1  UNL1        0.1167
     18 C          61.4755   80.6669   13.8506 C.ar    1  UNL1        0.1385
     19 C          62.6421   80.4684   12.9288 C.ar    1  UNL1        0.0369
     20 C          63.7760   81.4503   12.9320 C.ar    1  UNL1        0.0028
     21 C          63.7434   82.6307   13.8570 C.ar    1  UNL1       -0.0024
     22 C          62.5769   82.8292   14.7787 C.ar    1  UNL1        0.0005
     23 C          61.4429   81.8473   14.7755 C.ar    1  UNL1        0.0343
     24 C          58.9953   80.0923   14.3686 C.3     1  UNL1        0.2525
     25 O          60.3415   79.6850   13.8473 O.3     1  UNL1       -0.4714
@<TRIPOS>BOND
     1    24    25    1
     2    25    18    1
     3    18    19   ar
     4    19    20   ar
     5    20    21   ar
     6    21    22   ar
     7    22    17    1
     8    17     1    1
     9     1     2   am
    10     2     3    2
    11     2     5    1
    12     5     6   ar
    13     6     7   ar
    14     7     8   ar
    15     8    11    1
    16    11    12   ar
    17    12    13   ar
    18    13    14   ar
    19    14    15   ar
    20    15    16   ar
    21     8     9   ar
    22     9    10   ar
    23    22    23   ar
    24    23    18   ar
    25    10     5   ar
    26    16    11   ar
    27     1     4    1
