@<TRIPOS>MOLECULE
*****
 46 50 0 0 0
SMALL
GASTEIGER

@<TRIPOS>ATOM
      1 C          61.0592   88.6921    9.4525 C.3     1  UNL1        0.0964
      2 C          60.2574   89.8659    8.9736 C.3     1  UNL1        0.0780
      3 N          59.3376   89.7165    7.7982 N.3     1  UNL1       -0.2970
      4 C          59.2196   88.3933    7.1017 C.3     1  UNL1        0.0689
      5 C          60.0213   87.2195    7.5806 C.3     1  UNL1        0.0220
      6 C          60.9411   87.3689    8.7560 C.3     1  UNL1        0.0337
      7 H          59.6432   90.3918    7.0975 H       1  UNL1        0.1233
      8 C          61.7428   86.1950    9.2350 C.ar    1  UNL1       -0.0217
      9 C          61.5548   85.6775   10.6302 C.ar    1  UNL1       -0.0012
     10 C          62.3565   84.5036   11.1091 C.ar    1  UNL1        0.0366
     11 C          63.3463   83.8474   10.1928 C.ar    1  UNL1        0.1387
     12 C          63.5343   84.3650    8.7976 C.ar    1  UNL1        0.0366
     13 C          62.7326   85.5388    8.3187 C.ar    1  UNL1       -0.0012
     14 O          64.1480   82.6736   10.6718 O.3     1  UNL1       -0.4714
     15 C          63.4924   81.6017   11.4911 C.3     1  UNL1        0.2525
     16 C          63.6486   81.5970   12.9830 C.3     1  UNL1        0.2525
     17 O          64.5856   82.5655   13.6420 O.3     1  UNL1       -0.4697
     18 C          64.0492   83.6135   14.5715 C.ar    1  UNL1        0.1596
     19 C          62.6656   83.4790   15.1351 C.ar    1  UNL1        0.0921
     20 CL         61.8185   82.2965   14.7692 Cl      1  UNL1       -0.0791
     21 C          62.1293   84.5270   16.0646 C.ar    1  UNL1        0.0103
     22 C          62.9764   85.7095   16.4306 C.ar    1  UNL1       -0.0200
     23 C          62.4401   86.7575   17.3601 C.3     1  UNL1        0.0311
     24 C          64.3601   85.8440   15.8670 C.ar    1  UNL1        0.0103
     25 C          64.8964   84.7960   14.9375 C.ar    1  UNL1        0.0921
     26 CL         66.2800   84.9305   14.3739 Cl      1  UNL1       -0.0791
     27 N          61.4692   89.4325   11.9089 N.am    1  UNL1       -0.2770
     28 C          61.9790   88.8415   10.6280 C.2     1  UNL1        0.2270
     29 O          63.4087   88.4000   10.5224 O.2     1  UNL1       -0.2748
     30 C          60.0395   89.8740   12.0144 C.3     1  UNL1        0.0758
     31 C          58.6240   89.6042   12.4311 C.3     1  UNL1        0.0215
     32 C          58.9788   90.9085   11.7806 C.3     1  UNL1        0.0215
     33 C          62.3890   89.5819   13.0843 C.3     1  UNL1        0.1209
     34 C          64.9662   92.2570   11.6869 C.ar    1  UNL1       -0.0210
     35 C          65.9284   92.3497   12.8340 C.ar    1  UNL1       -0.0034
     36 C          65.7108   91.5198   14.0644 C.ar    1  UNL1        0.0108
     37 C          64.5310   90.5972   14.1478 C.ar    1  UNL1        0.0553
     38 CL         64.3134   89.7674   15.3782 Cl      1  UNL1       -0.0825
     39 C          63.5688   90.5045   13.0009 C.ar    1  UNL1        0.0079
     40 C          63.7864   91.3344   11.7704 C.ar    1  UNL1       -0.0060
     41 C          65.1837   93.0868   10.4565 C.3     1  UNL1        0.0434
     42 C          65.9244   94.3878   10.5506 C.3     1  UNL1        0.0733
     43 N          67.4137   94.4174   10.3740 N.3     1  UNL1       -0.2972
     44 H          67.6873   95.3996   10.3445 H       1  UNL1        0.1233
     45 C          68.4722   92.3228    9.2595 C.3     1  UNL1        0.0185
     46 C          68.0408   93.7573    9.1819 C.3     1  UNL1        0.0686
@<TRIPOS>BOND
     1    45    46    1
     2    46    43    1
     3    43    42    1
     4    42    41    1
     5    41    34    1
     6    34    35   ar
     7    35    36   ar
     8    36    37   ar
     9    37    38    1
    10    37    39   ar
    11    39    33    1
    12    33    27    1
    13    27    28   am
    14    28    29    2
    15     1    28    1
    16     1     2    1
    17     2     3    1
    18     3     4    1
    19     4     5    1
    20     5     6    1
    21     6     8    1
    22     8     9   ar
    23     9    10   ar
    24    10    11   ar
    25    11    14    1
    26    14    15    1
    27    15    16    1
    28    16    17    1
    29    17    18    1
    30    18    19   ar
    31    19    20    1
    32    19    21   ar
    33    21    22   ar
    34    22    23    1
    35    22    24   ar
    36    24    25   ar
    37    25    26    1
    38    11    12   ar
    39    12    13   ar
    40    27    30    1
    41    30    31    1
    42    31    32    1
    43    39    40   ar
    44    40    34   ar
    45     6     1    1
    46    13     8   ar
    47    32    30    1
    48    25    18   ar
    49    43    44    1
    50     3     7    1
@<TRIPOS>MOLECULE
*****
 46 50 0 0 0
SMALL
GASTEIGER

@<TRIPOS>ATOM
      1 C          60.8106   86.9101    9.3001 C.3     1  UNL1        0.0964
      2 C          59.9684   86.0887    8.3695 C.3     1  UNL1        0.0780
      3 N          58.9988   86.7620    7.4440 N.3     1  UNL1       -0.2970
      4 C          58.8715   88.2565    7.4490 C.3     1  UNL1        0.0689
      5 C          59.7137   89.0778    8.3796 C.3     1  UNL1        0.0220
      6 C          60.6833   88.4046    9.3051 C.3     1  UNL1        0.0337
      7 H          58.0754   86.3870    7.6613 H       1  UNL1        0.1233
      8 C          61.5256   89.2260   10.2357 C.ar    1  UNL1       -0.0217
      9 C          62.7437   89.9322    9.7188 C.ar    1  UNL1       -0.0012
     10 C          63.5860   90.7535   10.6494 C.ar    1  UNL1        0.0366
     11 C          63.2101   90.8686   12.0969 C.ar    1  UNL1        0.1387
     12 C          61.9919   90.1624   12.6139 C.ar    1  UNL1        0.0366
     13 C          61.1497   89.3410   11.6833 C.ar    1  UNL1       -0.0012
     14 O          64.0524   91.6900   13.0275 O.3     1  UNL1       -0.4714
     15 C          65.4421   92.0880   12.6273 C.3     1  UNL1        0.2525
     16 C          65.9209   93.4884   12.8718 C.3     1  UNL1        0.2525
     17 O          67.1039   94.0189   12.1175 O.3     1  UNL1       -0.4697
     18 C          66.9038   94.7268   10.8102 C.ar    1  UNL1        0.1596
     19 C          67.2534   94.0392    9.5238 C.ar    1  UNL1        0.0921
     20 CL         67.8030   92.6437    9.5446 Cl      1  UNL1       -0.0791
     21 C          67.0533   94.7471    8.2165 C.ar    1  UNL1        0.0103
     22 C          66.5037   96.1426    8.1957 C.ar    1  UNL1       -0.0200
     23 C          66.3036   96.8505    6.8885 C.3     1  UNL1        0.0311
     24 C          66.1541   96.8303    9.4822 C.ar    1  UNL1        0.0103
     25 C          66.3542   96.1224   10.7895 C.ar    1  UNL1        0.0921
     26 CL         66.0047   96.8100   12.0759 Cl      1  UNL1       -0.0791
     27 N          62.7782   85.2572    9.6831 N.am    1  UNL1       -0.2770
     28 C          61.7802   86.2368   10.2257 C.2     1  UNL1        0.2270
     29 O          61.7518   86.5431   11.6938 O.2     1  UNL1       -0.2748
     30 C          62.8067   84.9509    8.2150 C.3     1  UNL1        0.0758
     31 C          63.5476   84.9060    6.9115 C.3     1  UNL1        0.0215
     32 C          62.1152   84.4653    6.9757 C.3     1  UNL1        0.0215
     33 C          63.7479   84.5839   10.6087 C.3     1  UNL1        0.1209
     34 C          62.4827   83.3964   14.1779 C.ar    1  UNL1       -0.0210
     35 C          62.2322   81.9402   13.9197 C.ar    1  UNL1       -0.0034
     36 C          62.4868   81.3652   12.5579 C.ar    1  UNL1        0.0108
     37 C          62.9921   82.2465   11.4542 C.ar    1  UNL1        0.0553
     38 CL         63.2468   81.6716   10.0924 Cl      1  UNL1       -0.0825
     39 C          63.2426   83.7027   11.7123 C.ar    1  UNL1        0.0079
     40 C          62.9879   84.2777   13.0742 C.ar    1  UNL1       -0.0060
     41 C          62.2280   83.9714   15.5397 C.3     1  UNL1        0.0434
     42 C          62.9834   85.1847   15.9948 C.3     1  UNL1        0.0733
     43 N          64.4766   85.2331   15.8593 N.3     1  UNL1       -0.2972
     44 H          64.8567   85.2780   16.8048 H       1  UNL1        0.1233
     45 C          64.3297   87.5551   14.7032 C.3     1  UNL1        0.0185
     46 C          65.1234   86.3393   15.0795 C.3     1  UNL1        0.0686
@<TRIPOS>BOND
     1    45    46    1
     2    46    43    1
     3    43    42    1
     4    42    41    1
     5    41    34    1
     6    34    35   ar
     7    35    36   ar
     8    36    37   ar
     9    37    38    1
    10    37    39   ar
    11    39    33    1
    12    33    27    1
    13    27    28   am
    14    28    29    2
    15     1    28    1
    16     1     2    1
    17     2     3    1
    18     3     4    1
    19     4     5    1
    20     5     6    1
    21     6     8    1
    22     8     9   ar
    23     9    10   ar
    24    10    11   ar
    25    11    14    1
    26    14    15    1
    27    15    16    1
    28    16    17    1
    29    17    18    1
    30    18    19   ar
    31    19    20    1
    32    19    21   ar
    33    21    22   ar
    34    22    23    1
    35    22    24   ar
    36    24    25   ar
    37    25    26    1
    38    11    12   ar
    39    12    13   ar
    40    27    30    1
    41    30    31    1
    42    31    32    1
    43    39    40   ar
    44    40    34   ar
    45     6     1    1
    46    13     8   ar
    47    32    30    1
    48    25    18   ar
    49    43    44    1
    50     3     7    1
@<TRIPOS>MOLECULE
*****
 46 50 0 0 0
SMALL
GASTEIGER

@<TRIPOS>ATOM
      1 C          60.4724   87.3844    9.6582 C.3     1  UNL1        0.0964
      2 C          59.5667   86.5615    8.7906 C.3     1  UNL1        0.0780
      3 N          58.8770   87.1910    7.6168 N.3     1  UNL1       -0.2970
      4 C          59.0928   88.6434    7.3106 C.3     1  UNL1        0.0689
      5 C          59.9985   89.4663    8.1782 C.3     1  UNL1        0.0220
      6 C          60.6882   88.8368    9.3519 C.3     1  UNL1        0.0337
      7 H          57.8751   87.0665    7.7625 H       1  UNL1        0.1233
      8 C          61.5939   89.6597   10.2195 C.ar    1  UNL1       -0.0217
      9 C          62.6857   90.4797    9.5987 C.ar    1  UNL1       -0.0012
     10 C          63.5914   91.3026   10.4663 C.ar    1  UNL1        0.0366
     11 C          63.4052   91.3055   11.9546 C.ar    1  UNL1        0.1387
     12 C          62.3133   90.4855   12.5754 C.ar    1  UNL1        0.0366
     13 C          61.4077   89.6626   11.7079 C.ar    1  UNL1       -0.0012
     14 O          64.3108   92.1284   12.8222 O.3     1  UNL1       -0.4714
     15 C          65.7357   91.7082   13.0301 C.3     1  UNL1        0.2525
     16 C          66.6945   91.7114   11.8765 C.3     1  UNL1        0.2525
     17 O          67.6000   92.8871   11.6572 O.3     1  UNL1       -0.4697
     18 C          67.2956   93.8758   10.5711 C.ar    1  UNL1        0.1596
     19 C          67.7553   93.6134    9.1676 C.ar    1  UNL1        0.0921
     20 CL         68.5193   92.3622    8.8503 Cl      1  UNL1       -0.0791
     21 C          67.4510   94.6021    8.0814 C.ar    1  UNL1        0.0103
     22 C          66.6869   95.8533    8.3988 C.ar    1  UNL1       -0.0200
     23 C          66.3826   96.8421    7.3126 C.3     1  UNL1        0.0311
     24 C          66.2272   96.1158    9.8023 C.ar    1  UNL1        0.0103
     25 C          66.5316   95.1271   10.8885 C.ar    1  UNL1        0.0921
     26 CL         66.0719   95.3895   12.2919 Cl      1  UNL1       -0.0791
     27 N          62.3114   85.8163   10.6118 N.am    1  UNL1       -0.2770
     28 C          61.1622   86.7548   10.8320 C.2     1  UNL1        0.2270
     29 O          60.7027   87.0637   12.2261 O.2     1  UNL1       -0.2748
     30 C          62.7709   85.5074    9.2177 C.3     1  UNL1        0.0758
     31 C          63.5196   85.9021    7.9793 C.3     1  UNL1        0.0215
     32 C          62.8180   84.5777    8.0415 C.3     1  UNL1        0.0215
     33 C          63.0012   85.1867   11.7856 C.3     1  UNL1        0.1209
     34 C          63.1288   81.2736   11.1362 C.ar    1  UNL1       -0.0210
     35 C          62.6818   80.7504   12.4690 C.ar    1  UNL1       -0.0034
     36 C          62.3412   81.7059   13.5740 C.ar    1  UNL1        0.0108
     37 C          62.4477   83.1847   13.3462 C.ar    1  UNL1        0.0553
     38 CL         62.1072   84.1402   14.4511 Cl      1  UNL1       -0.0825
     39 C          62.8947   83.7079   12.0134 C.ar    1  UNL1        0.0079
     40 C          63.2353   82.7524   10.9084 C.ar    1  UNL1       -0.0060
     41 C          63.4694   80.3181   10.0312 C.3     1  UNL1        0.0434
     42 C          62.5384   79.1888    9.7027 C.3     1  UNL1        0.0733
     43 N          62.5492   77.9414   10.5357 N.3     1  UNL1       -0.2972
     44 H          62.8576   78.2134   11.4692 H       1  UNL1        0.1233
     45 C          64.4715   76.9501    9.0964 C.3     1  UNL1        0.0185
     46 C          63.3937   76.7720   10.1242 C.3     1  UNL1        0.0686
@<TRIPOS>BOND
     1    45    46    1
     2    46    43    1
     3    43    42    1
     4    42    41    1
     5    41    34    1
     6    34    35   ar
     7    35    36   ar
     8    36    37   ar
     9    37    38    1
    10    37    39   ar
    11    39    33    1
    12    33    27    1
    13    27    28   am
    14    28    29    2
    15     1    28    1
    16     1     2    1
    17     2     3    1
    18     3     4    1
    19     4     5    1
    20     5     6    1
    21     6     8    1
    22     8     9   ar
    23     9    10   ar
    24    10    11   ar
    25    11    14    1
    26    14    15    1
    27    15    16    1
    28    16    17    1
    29    17    18    1
    30    18    19   ar
    31    19    20    1
    32    19    21   ar
    33    21    22   ar
    34    22    23    1
    35    22    24   ar
    36    24    25   ar
    37    25    26    1
    38    11    12   ar
    39    12    13   ar
    40    27    30    1
    41    30    31    1
    42    31    32    1
    43    39    40   ar
    44    40    34   ar
    45     6     1    1
    46    13     8   ar
    47    32    30    1
    48    25    18   ar
    49    43    44    1
    50     3     7    1
@<TRIPOS>MOLECULE
*****
 46 50 0 0 0
SMALL
GASTEIGER

@<TRIPOS>ATOM
      1 C          63.4713   86.9645   13.0296 C.3     1  UNL1        0.0964
      2 C          64.2667   86.4540   14.1943 C.3     1  UNL1        0.0780
      3 N          64.3021   84.9843   14.4919 N.3     1  UNL1       -0.2970
      4 C          63.5420   84.0251   13.6247 C.3     1  UNL1        0.0689
      5 C          62.7465   84.5356   12.4599 C.3     1  UNL1        0.0220
      6 C          62.7112   86.0053   12.1624 C.3     1  UNL1        0.0337
      7 H          63.9476   84.8674   15.4411 H       1  UNL1        0.1233
      8 C          61.9157   86.5158   10.9976 C.ar    1  UNL1       -0.0217
      9 C          62.3131   86.1474    9.5990 C.ar    1  UNL1       -0.0012
     10 C          61.5176   86.6579    8.4342 C.ar    1  UNL1        0.0366
     11 C          60.3248   87.5368    8.6681 C.ar    1  UNL1        0.1387
     12 C          59.9275   87.9052   10.0668 C.ar    1  UNL1        0.0366
     13 C          60.7229   87.3947   11.2316 C.ar    1  UNL1       -0.0012
     14 O          59.5294   88.0473    7.5034 O.3     1  UNL1       -0.4714
     15 C          59.5445   89.5092    7.1679 C.3     1  UNL1        0.2525
     16 C          59.7309   89.9507    5.7466 C.3     1  UNL1        0.2525
     17 O          60.8977   90.8183    5.3776 O.3     1  UNL1       -0.4697
     18 C          60.8790   91.5942    4.0940 C.ar    1  UNL1        0.1596
     19 C          59.6449   92.3443    3.6889 C.ar    1  UNL1        0.0921
     20 CL         58.4294   92.3186    4.5674 Cl      1  UNL1       -0.0791
     21 C          59.6263   93.1202    2.4053 C.ar    1  UNL1        0.0103
     22 C          60.8417   93.1459    1.5267 C.ar    1  UNL1       -0.0200
     23 C          60.8231   93.9217    0.2431 C.3     1  UNL1        0.0311
     24 C          62.0760   92.3957    1.9318 C.ar    1  UNL1        0.0103
     25 C          62.0946   91.6198    3.2154 C.ar    1  UNL1        0.0921
     26 CL         63.3287   90.8697    3.6205 Cl      1  UNL1       -0.0791
     27 N          63.3549   89.4252   13.8553 N.am    1  UNL1       -0.2770
     28 C          63.4359   88.4343   12.7321 C.2     1  UNL1        0.2270
     29 O          63.4817   88.9132   11.3113 O.2     1  UNL1       -0.2748
     30 C          63.3092   88.9463   15.2760 C.3     1  UNL1        0.0758
     31 C          63.1528   89.2347   16.7397 C.3     1  UNL1        0.0215
     32 C          63.3863   87.8284   16.2731 C.3     1  UNL1        0.0215
     33 C          63.3196   90.8950   13.5577 C.3     1  UNL1        0.1209
     34 C          66.1686   92.6418   11.4172 C.ar    1  UNL1       -0.0210
     35 C          67.1153   93.0683   12.4998 C.ar    1  UNL1       -0.0034
     36 C          66.7967   92.7703   13.9349 C.ar    1  UNL1        0.0108
     37 C          65.5315   92.0459   14.2876 C.ar    1  UNL1        0.0553
     38 CL         65.2129   91.7480   15.7227 Cl      1  UNL1       -0.0825
     39 C          64.5848   91.6194   13.2051 C.ar    1  UNL1        0.0079
     40 C          64.9034   91.9173   11.7698 C.ar    1  UNL1       -0.0060
     41 C          66.4872   92.9397    9.9820 C.3     1  UNL1        0.0434
     42 C          67.9050   93.1990    9.5667 C.3     1  UNL1        0.0733
     43 N          68.3680   94.6035    9.3155 N.3     1  UNL1       -0.2972
     44 H          68.8826   94.8969   10.1459 H       1  UNL1        0.1233
     45 C          66.9753   96.6529   10.0964 C.3     1  UNL1        0.0185
     46 C          67.3675   95.6819    9.0225 C.3     1  UNL1        0.0686
@<TRIPOS>BOND
     1    45    46    1
     2    46    43    1
     3    43    42    1
     4    42    41    1
     5    41    34    1
     6    34    35   ar
     7    35    36   ar
     8    36    37   ar
     9    37    38    1
    10    37    39   ar
    11    39    33    1
    12    33    27    1
    13    27    28   am
    14    28    29    2
    15     1    28    1
    16     1     2    1
    17     2     3    1
    18     3     4    1
    19     4     5    1
    20     5     6    1
    21     6     8    1
    22     8     9   ar
    23     9    10   ar
    24    10    11   ar
    25    11    14    1
    26    14    15    1
    27    15    16    1
    28    16    17    1
    29    17    18    1
    30    18    19   ar
    31    19    20    1
    32    19    21   ar
    33    21    22   ar
    34    22    23    1
    35    22    24   ar
    36    24    25   ar
    37    25    26    1
    38    11    12   ar
    39    12    13   ar
    40    27    30    1
    41    30    31    1
    42    31    32    1
    43    39    40   ar
    44    40    34   ar
    45     6     1    1
    46    13     8   ar
    47    32    30    1
    48    25    18   ar
    49    43    44    1
    50     3     7    1
@<TRIPOS>MOLECULE
*****
 46 50 0 0 0
SMALL
GASTEIGER

@<TRIPOS>ATOM
      1 C          60.3532   87.3120    9.5092 C.3     1  UNL1        0.0964
      2 C          59.4888   86.4619    8.6259 C.3     1  UNL1        0.0780
      3 N          58.7999   87.0706    7.4406 N.3     1  UNL1       -0.2970
      4 C          58.9755   88.5293    7.1386 C.3     1  UNL1        0.0689
      5 C          59.8399   89.3793    8.0218 C.3     1  UNL1        0.0220
      6 C          60.5288   88.7707    9.2071 C.3     1  UNL1        0.0337
      7 H          57.8001   86.9147    7.5690 H       1  UNL1        0.1233
      8 C          61.3932   89.6208   10.0904 C.ar    1  UNL1       -0.0217
      9 C          62.5749   90.3422    9.5133 C.ar    1  UNL1       -0.0012
     10 C          63.4393   91.1923   10.3966 C.ar    1  UNL1        0.0366
     11 C          63.1220   91.3209   11.8569 C.ar    1  UNL1        0.1387
     12 C          61.9404   90.5994   12.4340 C.ar    1  UNL1        0.0366
     13 C          61.0759   89.7494   11.5508 C.ar    1  UNL1       -0.0012
     14 O          63.9865   92.1709   12.7402 O.3     1  UNL1       -0.4714
     15 C          65.3727   91.7189   13.0923 C.3     1  UNL1        0.2525
     16 C          65.5699   90.5160   13.9664 C.3     1  UNL1        0.2525
     17 O          64.6562   89.3338   13.8328 O.3     1  UNL1       -0.4697
     18 C          64.1155   88.6614   15.0598 C.ar    1  UNL1        0.1596
     19 C          63.4925   89.4805   16.1511 C.ar    1  UNL1        0.0921
     20 CL         63.4101   90.9720   16.0153 Cl      1  UNL1       -0.0791
     21 C          62.9518   88.8080   17.3780 C.ar    1  UNL1        0.0103
     22 C          63.0341   87.3165   17.5138 C.ar    1  UNL1       -0.0200
     23 C          62.4935   86.6440   18.7407 C.3     1  UNL1        0.0311
     24 C          63.6572   86.4973   16.4225 C.ar    1  UNL1        0.0103
     25 C          64.1979   87.1697   15.1955 C.ar    1  UNL1        0.0921
     26 CL         64.8209   86.3507   14.1042 Cl      1  UNL1       -0.0791
     27 N          62.2140   85.7889   10.4930 N.am    1  UNL1       -0.2770
     28 C          61.0421   86.7032   10.6945 C.2     1  UNL1        0.2270
     29 O          60.5589   87.0089   12.0813 O.2     1  UNL1       -0.2748
     30 C          62.6971   85.4833    9.1063 C.3     1  UNL1        0.0758
     31 C          63.7546   85.5843    8.0474 C.3     1  UNL1        0.0215
     32 C          62.4762   84.8529    7.7632 C.3     1  UNL1        0.0215
     33 C          62.9028   85.1802   11.6784 C.3     1  UNL1        0.1209
     34 C          63.1105   81.2715   11.0231 C.ar    1  UNL1       -0.0210
     35 C          62.6984   80.7373   12.3628 C.ar    1  UNL1       -0.0034
     36 C          62.3544   81.6839   13.4743 C.ar    1  UNL1        0.0108
     37 C          62.4225   83.1649   13.2462 C.ar    1  UNL1        0.0553
     38 CL         62.0785   84.1116   14.3576 Cl      1  UNL1       -0.0825
     39 C          62.8347   83.6992   11.9065 C.ar    1  UNL1        0.0079
     40 C          63.1787   82.7525   10.7950 C.ar    1  UNL1       -0.0060
     41 C          63.4545   80.3249    9.9117 C.3     1  UNL1        0.0434
     42 C          62.5842   79.1325    9.6457 C.3     1  UNL1        0.0733
     43 N          62.6724   77.9266   10.5335 N.3     1  UNL1       -0.2972
     44 H          63.1270   78.2281   11.3954 H       1  UNL1        0.1233
     45 C          64.5221   76.8287    9.0764 C.3     1  UNL1        0.0185
     46 C          63.4011   76.7021   10.0650 C.3     1  UNL1        0.0686
@<TRIPOS>BOND
     1    45    46    1
     2    46    43    1
     3    43    42    1
     4    42    41    1
     5    41    34    1
     6    34    35   ar
     7    35    36   ar
     8    36    37   ar
     9    37    38    1
    10    37    39   ar
    11    39    33    1
    12    33    27    1
    13    27    28   am
    14    28    29    2
    15     1    28    1
    16     1     2    1
    17     2     3    1
    18     3     4    1
    19     4     5    1
    20     5     6    1
    21     6     8    1
    22     8     9   ar
    23     9    10   ar
    24    10    11   ar
    25    11    14    1
    26    14    15    1
    27    15    16    1
    28    16    17    1
    29    17    18    1
    30    18    19   ar
    31    19    20    1
    32    19    21   ar
    33    21    22   ar
    34    22    23    1
    35    22    24   ar
    36    24    25   ar
    37    25    26    1
    38    11    12   ar
    39    12    13   ar
    40    27    30    1
    41    30    31    1
    42    31    32    1
    43    39    40   ar
    44    40    34   ar
    45     6     1    1
    46    13     8   ar
    47    32    30    1
    48    25    18   ar
    49    43    44    1
    50     3     7    1
@<TRIPOS>MOLECULE
*****
 46 50 0 0 0
SMALL
GASTEIGER

@<TRIPOS>ATOM
      1 C          62.8896   84.2220   11.3853 C.3     1  UNL1        0.0964
      2 C          63.0305   83.3297   10.1878 C.3     1  UNL1        0.0780
      3 N          63.9584   82.1521   10.2350 N.3     1  UNL1       -0.2970
      4 C          64.7454   81.8669   11.4796 C.3     1  UNL1        0.0689
      5 C          64.6046   82.7592   12.6770 C.3     1  UNL1        0.0220
      6 C          63.6767   83.9368   12.6299 C.3     1  UNL1        0.0337
      7 H          64.6343   82.2796    9.4818 H       1  UNL1        0.1233
      8 C          63.5359   84.8291   13.8274 C.ar    1  UNL1       -0.0217
      9 C          64.2996   86.1183   13.8960 C.ar    1  UNL1       -0.0012
     10 C          64.1587   87.0106   15.0935 C.ar    1  UNL1        0.0366
     11 C          63.2542   86.6138   16.2223 C.ar    1  UNL1        0.1387
     12 C          62.4905   85.3246   16.1536 C.ar    1  UNL1        0.0366
     13 C          62.6313   84.4323   14.9562 C.ar    1  UNL1       -0.0012
     14 O          63.1134   87.5061   17.4197 O.3     1  UNL1       -0.4714
     15 C          63.1643   88.9961   17.2549 C.3     1  UNL1        0.2525
     16 C          62.8742   89.6132   15.9188 C.3     1  UNL1        0.2525
     17 O          63.2354   91.0460   15.6601 O.3     1  UNL1       -0.4697
     18 C          64.6706   91.4330   15.4590 C.ar    1  UNL1        0.1596
     19 C          65.3359   92.3725   16.4206 C.ar    1  UNL1        0.0921
     20 CL         64.5660   92.9249   17.5833 Cl      1  UNL1       -0.0791
     21 C          66.7710   92.7596   16.2194 C.ar    1  UNL1        0.0103
     22 C          67.5409   92.2072   15.0567 C.ar    1  UNL1       -0.0200
     23 C          68.9761   92.5942   14.8555 C.3     1  UNL1        0.0311
     24 C          66.8756   91.2676   14.0950 C.ar    1  UNL1        0.0103
     25 C          65.4405   90.8806   14.2962 C.ar    1  UNL1        0.0921
     26 CL         64.7752   89.9411   13.3346 Cl      1  UNL1       -0.0791
     27 N          61.6723   86.0746   10.0301 N.am    1  UNL1       -0.2770
     28 C          61.9617   85.3997   11.3381 C.2     1  UNL1        0.2270
     29 O          61.3231   85.9024   12.5989 O.2     1  UNL1       -0.2748
     30 C          62.3109   85.5719    8.7694 C.3     1  UNL1        0.0758
     31 C          63.5421   85.2771    7.9650 C.3     1  UNL1        0.0215
     32 C          62.1855   84.9960    7.3900 C.3     1  UNL1        0.0215
     33 C          60.7444   87.2522    9.9829 C.3     1  UNL1        0.1209
     34 C          62.8540   90.5591   10.5861 C.ar    1  UNL1       -0.0210
     35 C          62.0500   91.2146   11.6697 C.ar    1  UNL1       -0.0034
     36 C          60.8109   90.5492   12.1909 C.ar    1  UNL1        0.0108
     37 C          60.3757   89.2284   11.6287 C.ar    1  UNL1        0.0553
     38 CL         59.1365   88.5631   12.1500 Cl      1  UNL1       -0.0825
     39 C          61.1796   88.5730   10.5452 C.ar    1  UNL1        0.0079
     40 C          62.4188   89.2383   10.0238 C.ar    1  UNL1       -0.0060
     41 C          64.0932   91.2245   10.0648 C.3     1  UNL1        0.0434
     42 C          64.7071   92.3648   10.8216 C.3     1  UNL1        0.0733
     43 N          65.3925   93.4743   10.0803 N.3     1  UNL1       -0.2972
     44 H          65.0628   93.4318    9.1160 H       1  UNL1        0.1233
     45 C          67.6930   92.2822   10.2702 C.3     1  UNL1        0.0185
     46 C          66.8905   93.5253   10.0240 C.3     1  UNL1        0.0686
@<TRIPOS>BOND
     1    45    46    1
     2    46    43    1
     3    43    42    1
     4    42    41    1
     5    41    34    1
     6    34    35   ar
     7    35    36   ar
     8    36    37   ar
     9    37    38    1
    10    37    39   ar
    11    39    33    1
    12    33    27    1
    13    27    28   am
    14    28    29    2
    15     1    28    1
    16     1     2    1
    17     2     3    1
    18     3     4    1
    19     4     5    1
    20     5     6    1
    21     6     8    1
    22     8     9   ar
    23     9    10   ar
    24    10    11   ar
    25    11    14    1
    26    14    15    1
    27    15    16    1
    28    16    17    1
    29    17    18    1
    30    18    19   ar
    31    19    20    1
    32    19    21   ar
    33    21    22   ar
    34    22    23    1
    35    22    24   ar
    36    24    25   ar
    37    25    26    1
    38    11    12   ar
    39    12    13   ar
    40    27    30    1
    41    30    31    1
    42    31    32    1
    43    39    40   ar
    44    40    34   ar
    45     6     1    1
    46    13     8   ar
    47    32    30    1
    48    25    18   ar
    49    43    44    1
    50     3     7    1
@<TRIPOS>MOLECULE
*****
 46 50 0 0 0
SMALL
GASTEIGER

@<TRIPOS>ATOM
      1 C          63.3237   86.9331   12.8214 C.3     1  UNL1        0.0964
      2 C          64.1259   86.4175   13.9793 C.3     1  UNL1        0.0780
      3 N          64.0850   84.9597   14.3300 N.3     1  UNL1       -0.2970
      4 C          63.2421   84.0175   13.5228 C.3     1  UNL1        0.0689
      5 C          62.4399   84.5331   12.3649 C.3     1  UNL1        0.0220
      6 C          62.4808   85.9909   12.0142 C.3     1  UNL1        0.0337
      7 H          63.7557   84.8977   15.2934 H       1  UNL1        0.1233
      8 C          61.6787   86.5066   10.8563 C.ar    1  UNL1       -0.0217
      9 C          60.5268   87.4367   11.0968 C.ar    1  UNL1       -0.0012
     10 C          59.7247   87.9524    9.9389 C.ar    1  UNL1        0.0366
     11 C          60.0745   87.5378    8.5405 C.ar    1  UNL1        0.1387
     12 C          61.2263   86.6077    8.2999 C.ar    1  UNL1        0.0366
     13 C          62.0284   86.0920    9.4578 C.ar    1  UNL1       -0.0012
     14 O          59.2723   88.0535    7.3826 O.3     1  UNL1       -0.4714
     15 C          59.3776   89.4945    6.9798 C.3     1  UNL1        0.2525
     16 C          59.7449   89.8545    5.5707 C.3     1  UNL1        0.2525
     17 O          60.8997   90.7753    5.3085 O.3     1  UNL1       -0.4697
     18 C          60.9221   91.6152    4.0660 C.ar    1  UNL1        0.1596
     19 C          62.1506   91.6497    3.2060 C.ar    1  UNL1        0.0921
     20 CL         63.3567   90.8442    3.5886 Cl      1  UNL1       -0.0791
     21 C          62.1729   92.4897    1.9634 C.ar    1  UNL1        0.0103
     22 C          60.9668   93.2952    1.5808 C.ar    1  UNL1       -0.0200
     23 C          60.9892   94.1351    0.3383 C.3     1  UNL1        0.0311
     24 C          59.7382   93.2607    2.4408 C.ar    1  UNL1        0.0103
     25 C          59.7159   92.4207    3.6834 C.ar    1  UNL1        0.0921
     26 CL         58.4874   92.3862    4.5433 Cl      1  UNL1       -0.0791
     27 N          63.3698   89.4241   13.5582 N.am    1  UNL1       -0.2770
     28 C          63.3646   88.3910   12.4707 C.2     1  UNL1        0.2270
     29 O          63.4003   88.8158   11.0326 O.2     1  UNL1       -0.2748
     30 C          63.3342   88.9994   14.9964 C.3     1  UNL1        0.0758
     31 C          63.1106   89.3280   16.4427 C.3     1  UNL1        0.0215
     32 C          63.4960   87.9352   16.0409 C.3     1  UNL1        0.0215
     33 C          63.4107   90.8821   13.2075 C.3     1  UNL1        0.1209
     34 C          67.1447   92.2263   13.2192 C.ar    1  UNL1       -0.0210
     35 C          67.2599   92.7554   11.8203 C.ar    1  UNL1       -0.0034
     36 C          66.0920   92.6600   10.8839 C.ar    1  UNL1        0.0108
     37 C          64.8090   92.0356   11.3463 C.ar    1  UNL1        0.0553
     38 CL         63.6411   91.9402   10.4099 Cl      1  UNL1       -0.0825
     39 C          64.6938   91.5065   12.7451 C.ar    1  UNL1        0.0079
     40 C          65.8617   91.6019   13.6816 C.ar    1  UNL1       -0.0060
     41 C          68.3126   92.3217   14.1556 C.3     1  UNL1        0.0434
     42 C          68.3958   93.4520   15.1382 C.3     1  UNL1        0.0733
     43 N          67.3464   93.6019   16.1996 N.3     1  UNL1       -0.2972
     44 H          67.8153   93.9694   17.0275 H       1  UNL1        0.1233
     45 C          65.0577   92.4858   16.7156 C.3     1  UNL1        0.0185
     46 C          66.5540   92.4086   16.6446 C.3     1  UNL1        0.0686
@<TRIPOS>BOND
     1    45    46    1
     2    46    43    1
     3    43    42    1
     4    42    41    1
     5    41    34    1
     6    34    35   ar
     7    35    36   ar
     8    36    37   ar
     9    37    38    1
    10    37    39   ar
    11    39    33    1
    12    33    27    1
    13    27    28   am
    14    28    29    2
    15     1    28    1
    16     1     2    1
    17     2     3    1
    18     3     4    1
    19     4     5    1
    20     5     6    1
    21     6     8    1
    22     8     9   ar
    23     9    10   ar
    24    10    11   ar
    25    11    14    1
    26    14    15    1
    27    15    16    1
    28    16    17    1
    29    17    18    1
    30    18    19   ar
    31    19    20    1
    32    19    21   ar
    33    21    22   ar
    34    22    23    1
    35    22    24   ar
    36    24    25   ar
    37    25    26    1
    38    11    12   ar
    39    12    13   ar
    40    27    30    1
    41    30    31    1
    42    31    32    1
    43    39    40   ar
    44    40    34   ar
    45     6     1    1
    46    13     8   ar
    47    32    30    1
    48    25    18   ar
    49    43    44    1
    50     3     7    1
@<TRIPOS>MOLECULE
*****
 46 50 0 0 0
SMALL
GASTEIGER

@<TRIPOS>ATOM
      1 C          62.5242   84.6883   12.8540 C.3     1  UNL1        0.0964
      2 C          62.1363   83.2546   13.0637 C.3     1  UNL1        0.0780
      3 N          62.3712   82.6009   14.3932 N.3     1  UNL1       -0.2970
      4 C          62.9940   83.3809   15.5128 C.3     1  UNL1        0.0689
      5 C          63.3819   84.8147   15.3030 C.3     1  UNL1        0.0220
      6 C          63.1469   85.4684   13.9736 C.3     1  UNL1        0.0337
      7 H          62.9750   81.7966   14.2232 H       1  UNL1        0.1233
      8 C          63.5348   86.9021   13.7638 C.ar    1  UNL1       -0.0217
      9 C          63.1534   87.6042   12.4944 C.ar    1  UNL1       -0.0012
     10 C          63.5413   89.0379   12.2846 C.ar    1  UNL1        0.0366
     11 C          64.3105   89.7695   13.3443 C.ar    1  UNL1        0.1387
     12 C          64.6919   89.0674   14.6137 C.ar    1  UNL1        0.0366
     13 C          64.3040   87.6337   14.8235 C.ar    1  UNL1       -0.0012
     14 O          64.6984   91.2033   13.1345 O.3     1  UNL1       -0.4714
     15 C          65.8504   91.7878   13.8967 C.3     1  UNL1        0.2525
     16 C          66.7697   92.7685   13.2311 C.3     1  UNL1        0.2525
     17 O          67.2649   92.5069   11.8395 O.3     1  UNL1       -0.4697
     18 C          67.2109   93.5941   10.8074 C.ar    1  UNL1        0.1596
     19 C          66.6176   94.9276   11.1532 C.ar    1  UNL1        0.0921
     20 CL         66.0784   95.1740   12.5311 Cl      1  UNL1       -0.0791
     21 C          66.5636   96.0148   10.1212 C.ar    1  UNL1        0.0103
     22 C          67.1028   95.7684    8.7433 C.ar    1  UNL1       -0.0200
     23 C          67.0488   96.8556    7.7113 C.3     1  UNL1        0.0311
     24 C          67.6961   94.4348    8.3975 C.ar    1  UNL1        0.0103
     25 C          67.7502   93.3476    9.4295 C.ar    1  UNL1        0.0921
     26 CL         68.3435   92.0141    9.0837 Cl      1  UNL1       -0.0791
     27 N          62.9950   84.8325   10.3030 N.am    1  UNL1       -0.2770
     28 C          62.2892   85.3420   11.5244 C.2     1  UNL1        0.2270
     29 O          61.3484   86.5053   11.4165 O.2     1  UNL1       -0.2748
     30 C          63.9358   83.6692   10.4109 C.3     1  UNL1        0.0758
     31 C          64.9197   82.8637   11.2066 C.3     1  UNL1        0.0215
     32 C          64.5814   82.4598    9.8021 C.3     1  UNL1        0.0215
     33 C          62.7601   85.4862    8.9734 C.3     1  UNL1        0.1209
     34 C          61.0245   89.0267    9.4233 C.ar    1  UNL1       -0.0210
     35 C          59.7787   88.8372    8.6094 C.ar    1  UNL1       -0.0034
     36 C          59.5268   87.5306    7.9170 C.ar    1  UNL1        0.0108
     37 C          60.5206   86.4136    8.0383 C.ar    1  UNL1        0.0553
     38 CL         60.2687   85.1071    7.3459 Cl      1  UNL1       -0.0825
     39 C          61.7663   86.6032    8.8521 C.ar    1  UNL1        0.0079
     40 C          62.0183   87.9097    9.5446 C.ar    1  UNL1       -0.0060
     41 C          61.2764   90.3332   10.1157 C.3     1  UNL1        0.0434
     42 C          60.4199   90.7443   11.2765 C.3     1  UNL1        0.0733
     43 N          60.1072   89.7592   12.3637 N.3     1  UNL1       -0.2972
     44 H          60.8973   89.1161   12.4146 H       1  UNL1        0.1233
     45 C          58.0610   88.6457   13.5140 C.3     1  UNL1        0.0185
     46 C          58.8685   88.9175   12.2794 C.3     1  UNL1        0.0686
@<TRIPOS>BOND
     1    45    46    1
     2    46    43    1
     3    43    42    1
     4    42    41    1
     5    41    34    1
     6    34    35   ar
     7    35    36   ar
     8    36    37   ar
     9    37    38    1
    10    37    39   ar
    11    39    33    1
    12    33    27    1
    13    27    28   am
    14    28    29    2
    15     1    28    1
    16     1     2    1
    17     2     3    1
    18     3     4    1
    19     4     5    1
    20     5     6    1
    21     6     8    1
    22     8     9   ar
    23     9    10   ar
    24    10    11   ar
    25    11    14    1
    26    14    15    1
    27    15    16    1
    28    16    17    1
    29    17    18    1
    30    18    19   ar
    31    19    20    1
    32    19    21   ar
    33    21    22   ar
    34    22    23    1
    35    22    24   ar
    36    24    25   ar
    37    25    26    1
    38    11    12   ar
    39    12    13   ar
    40    27    30    1
    41    30    31    1
    42    31    32    1
    43    39    40   ar
    44    40    34   ar
    45     6     1    1
    46    13     8   ar
    47    32    30    1
    48    25    18   ar
    49    43    44    1
    50     3     7    1
@<TRIPOS>MOLECULE
*****
 46 50 0 0 0
SMALL
GASTEIGER

@<TRIPOS>ATOM
      1 C          62.3472   83.4074   12.7582 C.3     1  UNL1        0.0964
      2 C          62.0912   82.1125   12.0457 C.3     1  UNL1        0.0780
      3 N          62.0473   80.8274   12.8181 N.3     1  UNL1       -0.2970
      4 C          62.2594   80.8373   14.3030 C.3     1  UNL1        0.0689
      5 C          62.5154   82.1322   15.0154 C.3     1  UNL1        0.0220
      6 C          62.5593   83.4173   14.2430 C.3     1  UNL1        0.0337
      7 H          62.7656   80.2211   12.4221 H       1  UNL1        0.1233
      8 C          62.8154   84.7122   14.9555 C.ar    1  UNL1       -0.0217
      9 C          63.9290   85.6096   14.5033 C.ar    1  UNL1       -0.0012
     10 C          64.1850   86.9045   15.2158 C.ar    1  UNL1        0.0366
     11 C          63.3274   87.3021   16.3804 C.ar    1  UNL1        0.1387
     12 C          62.2138   86.4047   16.8326 C.ar    1  UNL1        0.0366
     13 C          61.9578   85.1098   16.1201 C.ar    1  UNL1       -0.0012
     14 O          63.5835   88.5970   17.0929 O.3     1  UNL1       -0.4714
     15 C          63.0429   89.8799   16.5344 C.3     1  UNL1        0.2525
     16 C          63.9520   90.8203   15.8001 C.3     1  UNL1        0.2525
     17 O          64.8917   90.2932   14.7564 O.3     1  UNL1       -0.4697
     18 C          65.2784   91.1552   13.5913 C.ar    1  UNL1        0.1596
     19 C          64.3745   91.2533   12.3983 C.ar    1  UNL1        0.0921
     20 CL         63.0839   90.4894   12.3704 Cl      1  UNL1       -0.0791
     21 C          64.7612   92.1153   11.2332 C.ar    1  UNL1        0.0103
     22 C          66.0518   92.8792   11.2612 C.ar    1  UNL1       -0.0200
     23 C          66.4385   93.7412   10.0961 C.3     1  UNL1        0.0311
     24 C          66.9558   92.7811   12.4542 C.ar    1  UNL1        0.0103
     25 C          66.5691   91.9191   13.6193 C.ar    1  UNL1        0.0921
     26 CL         67.4729   91.8210   14.8123 Cl      1  UNL1       -0.0791
     27 N          63.2184   84.7898   10.7382 N.am    1  UNL1       -0.2770
     28 C          62.3912   84.6925   11.9857 C.2     1  UNL1        0.2270
     29 O          61.6078   85.8803   12.4607 O.2     1  UNL1       -0.2748
     30 C          64.0017   83.6021   10.2632 C.3     1  UNL1        0.0758
     31 C          65.0087   82.5214   10.5240 C.3     1  UNL1        0.0215
     32 C          64.3515   82.6256    9.1797 C.3     1  UNL1        0.0215
     33 C          63.2623   86.0749    9.9657 C.3     1  UNL1        0.1209
     34 C          60.1616   88.3704    9.0349 C.ar    1  UNL1       -0.0210
     35 C          59.5595   87.5889    7.9049 C.ar    1  UNL1       -0.0034
     36 C          60.1917   86.3029    7.4619 C.ar    1  UNL1        0.0108
     37 C          61.4259   85.7982    8.1488 C.ar    1  UNL1        0.0553
     38 CL         62.0581   84.5121    7.7058 Cl      1  UNL1       -0.0825
     39 C          62.0280   86.5796    9.2788 C.ar    1  UNL1        0.0079
     40 C          61.3958   87.8658    9.7219 C.ar    1  UNL1       -0.0060
     41 C          59.5294   89.6565    9.4779 C.3     1  UNL1        0.0434
     42 C          60.1528   90.4572   10.5825 C.3     1  UNL1        0.0733
     43 N          59.5806   90.3966   11.9679 N.3     1  UNL1       -0.2972
     44 H          60.2324   90.8904   12.5775 H       1  UNL1        0.1233
     45 C          57.9320   88.7435   13.1077 C.3     1  UNL1        0.0185
     46 C          59.3091   89.0683   12.6097 C.3     1  UNL1        0.0686
@<TRIPOS>BOND
     1    45    46    1
     2    46    43    1
     3    43    42    1
     4    42    41    1
     5    41    34    1
     6    34    35   ar
     7    35    36   ar
     8    36    37   ar
     9    37    38    1
    10    37    39   ar
    11    39    33    1
    12    33    27    1
    13    27    28   am
    14    28    29    2
    15     1    28    1
    16     1     2    1
    17     2     3    1
    18     3     4    1
    19     4     5    1
    20     5     6    1
    21     6     8    1
    22     8     9   ar
    23     9    10   ar
    24    10    11   ar
    25    11    14    1
    26    14    15    1
    27    15    16    1
    28    16    17    1
    29    17    18    1
    30    18    19   ar
    31    19    20    1
    32    19    21   ar
    33    21    22   ar
    34    22    23    1
    35    22    24   ar
    36    24    25   ar
    37    25    26    1
    38    11    12   ar
    39    12    13   ar
    40    27    30    1
    41    30    31    1
    42    31    32    1
    43    39    40   ar
    44    40    34   ar
    45     6     1    1
    46    13     8   ar
    47    32    30    1
    48    25    18   ar
    49    43    44    1
    50     3     7    1
