@<TRIPOS>MOLECULE
*****
 25 27 0 0 0
SMALL
GASTEIGER

@<TRIPOS>ATOM
      1 C          66.2788   92.8479   14.0486 C.ar    1  UNL1        0.0289
      2 C          65.5910   91.9258   15.0113 C.ar    1  UNL1        0.0031
      3 C          64.5590   90.9571   14.5148 C.ar    1  UNL1       -0.0062
      4 C          64.2147   90.9105   13.0556 C.ar    1  UNL1        0.0513
      5 C          64.9025   91.8325   12.0929 C.ar    1  UNL1        0.0190
      6 C          65.9346   92.8012   12.5894 C.ar    1  UNL1        0.0783
      7 N          63.1640   89.8579   12.8607 N.am    1  UNL1       -0.2430
      8 C          62.5297   89.4762   11.5561 C.2     1  UNL1        0.3115
      9 O          62.9383   90.1719   10.2916 O.2     1  UNL1       -0.2519
     10 N          61.4869   88.3987   11.5159 N.am    1  UNL1       -0.2666
     11 C          62.8588   89.2540   14.1994 C.3     1  UNL1        0.1045
     12 C          63.7210   89.9334   15.2217 C.3     1  UNL1        0.0496
     13 H          61.2188   87.9421   12.3459 H       1  UNL1        0.1565
     14 C          60.8526   88.0170   10.2113 C.ar    1  UNL1        0.0709
     15 C          60.9306   86.5999    9.7258 C.ar    1  UNL1        0.0179
     16 C          60.2962   86.2182    8.4212 C.ar    1  UNL1        0.0220
     17 C          59.5840   87.2536    7.6022 C.ar    1  UNL1        0.0990
     18 N          59.5061   88.6707    8.0877 N.ar    1  UNL1       -0.2410
     19 C          60.1404   89.0524    9.3923 C.ar    1  UNL1        0.1135
     20 C          66.6223   93.7232   11.6267 C.3     1  UNL1        0.4191
     21 F          67.3101   94.6452   10.6640 F       1  UNL1       -0.1658
     22 F          65.7673   94.8594   12.1041 F       1  UNL1       -0.1658
     23 F          67.4773   92.5870   11.1493 F       1  UNL1       -0.1658
     24 C          68.1844   93.4510   15.7084 C.3     1  UNL1        0.0742
     25 S          67.3108   93.8166   14.5451 S.3     1  UNL1       -0.1128
@<TRIPOS>BOND
     1    24    25    1
     2    25     1    1
     3     1     2   ar
     4     2     3   ar
     5     3     4   ar
     6     4     5   ar
     7     5     6   ar
     8     6    20    1
     9    20    21    1
    10    20    22    1
    11    20    23    1
    12     4     7    1
    13     7     8   am
    14     8     9    2
    15     8    10   am
    16    10    14    1
    17    14    15   ar
    18    15    16   ar
    19    16    17   ar
    20    17    18   ar
    21    18    19   ar
    22     7    11    1
    23    11    12    1
    24     6     1   ar
    25    19    14   ar
    26    12     3    1
    27    10    13    1
@<TRIPOS>MOLECULE
*****
 25 27 0 0 0
SMALL
GASTEIGER

@<TRIPOS>ATOM
      1 C          65.4329   92.5355   12.9561 C.ar    1  UNL1        0.0289
      2 C          64.4804   92.2985   11.8218 C.ar    1  UNL1        0.0031
      3 C          63.8300   90.9570   11.6564 C.ar    1  UNL1       -0.0062
      4 C          64.1320   89.8525   12.6253 C.ar    1  UNL1        0.0513
      5 C          65.0845   90.0894   13.7596 C.ar    1  UNL1        0.0190
      6 C          65.7349   91.4310   13.9251 C.ar    1  UNL1        0.0783
      7 N          63.3452   88.6445   12.2111 N.am    1  UNL1       -0.2430
      8 C          63.3465   87.3124   12.9007 C.2     1  UNL1        0.3115
      9 O          64.1901   87.1014   14.1228 O.2     1  UNL1       -0.2519
     10 N          62.5041   86.1914   12.3682 N.am    1  UNL1       -0.2666
     11 C          62.5569   89.0024   10.9861 C.3     1  UNL1        0.1045
     12 C          62.8565   90.4316   10.6434 C.3     1  UNL1        0.0496
     13 H          61.9503   86.3299   11.5660 H       1  UNL1        0.1565
     14 C          62.5053   84.8592   13.0578 C.ar    1  UNL1        0.0709
     15 C          62.6941   83.6025   12.2610 C.ar    1  UNL1        0.0179
     16 C          62.6953   82.2704   12.9507 C.ar    1  UNL1        0.0220
     17 C          62.5077   82.1952   14.4370 C.ar    1  UNL1        0.0990
     18 N          62.3188   83.4519   15.2337 N.ar    1  UNL1       -0.2410
     19 C          62.3176   84.7840   14.5441 C.ar    1  UNL1        0.1135
     20 C          66.6874   91.6679   15.0594 C.3     1  UNL1        0.4191
     21 F          67.6398   91.9048   16.1937 F       1  UNL1       -0.1658
     22 F          67.8388   91.3092   14.1674 F       1  UNL1       -0.1658
     23 F          65.5360   92.0265   15.9513 F       1  UNL1       -0.1658
     24 C          66.2509   94.7805   11.9360 C.3     1  UNL1        0.0742
     25 S          66.0833   93.8769   13.1215 S.3     1  UNL1       -0.1128
@<TRIPOS>BOND
     1    24    25    1
     2    25     1    1
     3     1     2   ar
     4     2     3   ar
     5     3     4   ar
     6     4     5   ar
     7     5     6   ar
     8     6    20    1
     9    20    21    1
    10    20    22    1
    11    20    23    1
    12     4     7    1
    13     7     8   am
    14     8     9    2
    15     8    10   am
    16    10    14    1
    17    14    15   ar
    18    15    16   ar
    19    16    17   ar
    20    17    18   ar
    21    18    19   ar
    22     7    11    1
    23    11    12    1
    24     6     1   ar
    25    19    14   ar
    26    12     3    1
    27    10    13    1
@<TRIPOS>MOLECULE
*****
 25 27 0 0 0
SMALL
GASTEIGER

@<TRIPOS>ATOM
      1 C          62.7721   83.0789   14.3257 C.ar    1  UNL1        0.0289
      2 C          62.5535   83.6540   15.6938 C.ar    1  UNL1        0.0031
      3 C          62.8748   85.0944   15.9619 C.ar    1  UNL1       -0.0062
      4 C          63.4147   85.9597   14.8621 C.ar    1  UNL1        0.0513
      5 C          63.6334   85.3847   13.4941 C.ar    1  UNL1        0.0190
      6 C          63.3120   83.9442   13.2259 C.ar    1  UNL1        0.0783
      7 N          63.6380   87.3339   15.4207 N.am    1  UNL1       -0.2430
      8 C          64.1698   88.5164   14.6666 C.2     1  UNL1        0.3115
      9 O          64.5314   88.3808   13.2171 O.2     1  UNL1       -0.2519
     10 N          64.3401   89.8346   15.3619 N.am    1  UNL1       -0.2666
     11 C          63.2360   87.3178   16.8657 C.3     1  UNL1        0.1045
     12 C          62.7643   85.9337   17.2002 C.3     1  UNL1        0.0496
     13 H          64.1028   89.9235   16.3132 H       1  UNL1        0.1565
     14 C          64.8720   91.0172   14.6078 C.ar    1  UNL1        0.0709
     15 C          65.9308   91.8840   15.2222 C.ar    1  UNL1        0.0179
     16 C          66.4626   93.0666   14.4680 C.ar    1  UNL1        0.0220
     17 C          65.9356   93.3823   13.0997 C.ar    1  UNL1        0.0990
     18 N          64.8767   92.5155   12.4853 N.ar    1  UNL1       -0.2410
     19 C          64.3449   91.3329   13.2394 C.ar    1  UNL1        0.1135
     20 C          63.5307   83.3691   11.8579 C.3     1  UNL1        0.4191
     21 F          63.7493   82.7941   10.4899 F       1  UNL1       -0.1658
     22 F          64.8756   82.8615   12.2862 F       1  UNL1       -0.1658
     23 F          62.1858   83.8768   11.4296 F       1  UNL1       -0.1658
     24 C          61.0412   81.1455   14.1995 C.3     1  UNL1        0.0742
     25 S          62.4507   81.6385   14.0576 S.3     1  UNL1       -0.1128
@<TRIPOS>BOND
     1    24    25    1
     2    25     1    1
     3     1     2   ar
     4     2     3   ar
     5     3     4   ar
     6     4     5   ar
     7     5     6   ar
     8     6    20    1
     9    20    21    1
    10    20    22    1
    11    20    23    1
    12     4     7    1
    13     7     8   am
    14     8     9    2
    15     8    10   am
    16    10    14    1
    17    14    15   ar
    18    15    16   ar
    19    16    17   ar
    20    17    18   ar
    21    18    19   ar
    22     7    11    1
    23    11    12    1
    24     6     1   ar
    25    19    14   ar
    26    12     3    1
    27    10    13    1
@<TRIPOS>MOLECULE
*****
 25 27 0 0 0
SMALL
GASTEIGER

@<TRIPOS>ATOM
      1 C          62.6515   83.5387   11.8921 C.ar    1  UNL1        0.0289
      2 C          62.1564   84.5735   10.9254 C.ar    1  UNL1        0.0031
      3 C          62.4054   86.0285   11.1915 C.ar    1  UNL1       -0.0062
      4 C          63.1495   86.4489   12.4243 C.ar    1  UNL1        0.0513
      5 C          63.6446   85.4142   13.3909 C.ar    1  UNL1        0.0190
      6 C          63.3955   83.9591   13.1248 C.ar    1  UNL1        0.0783
      7 N          63.2443   87.9459   12.4205 N.am    1  UNL1       -0.2430
      8 C          63.9081   88.7899   13.4679 C.2     1  UNL1        0.3115
      9 O          64.5561   88.1404   14.6547 O.2     1  UNL1       -0.2519
     10 N          63.9239   90.2833   13.3286 N.am    1  UNL1       -0.2666
     11 C          62.5589   88.4507   11.1855 C.3     1  UNL1        0.1045
     12 C          62.0404   87.2657   10.4259 C.3     1  UNL1        0.0496
     13 H          63.4986   90.7095   12.5497 H       1  UNL1        0.1565
     14 C          64.5876   91.1274   14.3760 C.ar    1  UNL1        0.0709
     15 C          65.9386   91.7239   14.1133 C.ar    1  UNL1        0.0179
     16 C          66.6022   92.5679   15.1608 C.ar    1  UNL1        0.0220
     17 C          65.9149   92.8154   16.4708 C.ar    1  UNL1        0.0990
     18 N          64.5640   92.2190   16.7336 N.ar    1  UNL1       -0.2410
     19 C          63.9003   91.3749   15.6861 C.ar    1  UNL1        0.1135
     20 C          63.8906   82.9245   14.0914 C.3     1  UNL1        0.4191
     21 F          64.3856   81.8899   15.0581 F       1  UNL1       -0.1658
     22 F          65.0833   82.6773   13.2161 F       1  UNL1       -0.1658
     23 F          62.6979   83.1717   14.9668 F       1  UNL1       -0.1658
     24 C          63.2758   81.3375   10.6614 C.3     1  UNL1        0.0742
     25 S          62.4025   82.0837   11.6260 S.3     1  UNL1       -0.1128
@<TRIPOS>BOND
     1    24    25    1
     2    25     1    1
     3     1     2   ar
     4     2     3   ar
     5     3     4   ar
     6     4     5   ar
     7     5     6   ar
     8     6    20    1
     9    20    21    1
    10    20    22    1
    11    20    23    1
    12     4     7    1
    13     7     8   am
    14     8     9    2
    15     8    10   am
    16    10    14    1
    17    14    15   ar
    18    15    16   ar
    19    16    17   ar
    20    17    18   ar
    21    18    19   ar
    22     7    11    1
    23    11    12    1
    24     6     1   ar
    25    19    14   ar
    26    12     3    1
    27    10    13    1
@<TRIPOS>MOLECULE
*****
 25 27 0 0 0
SMALL
GASTEIGER

@<TRIPOS>ATOM
      1 C          65.1188   91.8228   14.9406 C.ar    1  UNL1        0.0289
      2 C          65.4749   92.4915   13.6459 C.ar    1  UNL1        0.0031
      3 C          64.8058   92.0652   12.3728 C.ar    1  UNL1       -0.0062
      4 C          63.7807   90.9704   12.3944 C.ar    1  UNL1        0.0513
      5 C          63.4246   90.3018   13.6891 C.ar    1  UNL1        0.0190
      6 C          64.0937   90.7280   14.9622 C.ar    1  UNL1        0.0783
      7 N          63.2921   90.7652   10.9912 N.am    1  UNL1       -0.2430
      8 C          62.2613   89.7672   10.5536 C.2     1  UNL1        0.3115
      9 O          61.6204   88.8599   11.5616 O.2     1  UNL1       -0.2519
     10 N          61.8714   89.6764    9.1080 N.am    1  UNL1       -0.2666
     11 C          64.0152   91.7332   10.1023 C.3     1  UNL1        0.1045
     12 C          64.9507   92.5366   10.9562 C.3     1  UNL1        0.0496
     13 H          62.2921   90.2719    8.4464 H       1  UNL1        0.1565
     14 C          60.8406   88.6784    8.6704 C.ar    1  UNL1        0.0709
     15 C          61.0305   87.2218    8.9740 C.ar    1  UNL1        0.0179
     16 C          59.9997   86.2239    8.5364 C.ar    1  UNL1        0.0220
     17 C          58.7790   86.6826    7.7951 C.ar    1  UNL1        0.0990
     18 N          58.5891   88.1392    7.4914 N.ar    1  UNL1       -0.2410
     19 C          59.6199   89.1371    7.9291 C.ar    1  UNL1        0.1135
     20 C          63.7376   90.0594   16.2568 C.3     1  UNL1        0.4191
     21 F          63.3815   89.3908   17.5515 F       1  UNL1       -0.1658
     22 F          63.3296   91.3846   16.8290 F       1  UNL1       -0.1658
     23 F          64.1456   88.7342   15.6847 F       1  UNL1       -0.1658
     24 C          67.1921   92.7754   16.1831 C.3     1  UNL1        0.0742
     25 S          65.7878   92.2491   16.2136 S.3     1  UNL1       -0.1128
@<TRIPOS>BOND
     1    24    25    1
     2    25     1    1
     3     1     2   ar
     4     2     3   ar
     5     3     4   ar
     6     4     5   ar
     7     5     6   ar
     8     6    20    1
     9    20    21    1
    10    20    22    1
    11    20    23    1
    12     4     7    1
    13     7     8   am
    14     8     9    2
    15     8    10   am
    16    10    14    1
    17    14    15   ar
    18    15    16   ar
    19    16    17   ar
    20    17    18   ar
    21    18    19   ar
    22     7    11    1
    23    11    12    1
    24     6     1   ar
    25    19    14   ar
    26    12     3    1
    27    10    13    1
@<TRIPOS>MOLECULE
*****
 25 27 0 0 0
SMALL
GASTEIGER

@<TRIPOS>ATOM
      1 C          63.8922   90.5704   15.9544 C.ar    1  UNL1        0.0289
      2 C          63.4464   89.8182   17.1732 C.ar    1  UNL1        0.0031
      3 C          63.1955   88.3416   17.0933 C.ar    1  UNL1       -0.0062
      4 C          63.3904   87.6170   15.7944 C.ar    1  UNL1        0.0513
      5 C          63.8362   88.3690   14.5756 C.ar    1  UNL1        0.0190
      6 C          64.0871   89.8458   14.6555 C.ar    1  UNL1        0.0783
      7 N          63.0681   86.1692   16.0185 N.am    1  UNL1       -0.2430
      8 C          63.1292   85.0824   14.9864 C.2     1  UNL1        0.3115
      9 O          63.5432   85.4050   13.5812 O.2     1  UNL1       -0.2519
     10 N          62.7763   83.6731   15.3595 N.am    1  UNL1       -0.2666
     11 C          62.6740   85.9991   17.4557 C.3     1  UNL1        0.1045
     12 C          62.7528   87.3416   18.1200 C.3     1  UNL1        0.0496
     13 H          62.5046   83.4614   16.2817 H       1  UNL1        0.1565
     14 C          62.8373   82.5863   14.3274 C.ar    1  UNL1        0.0709
     15 C          61.7941   81.5086   14.3105 C.ar    1  UNL1        0.0179
     16 C          61.8553   80.4218   13.2785 C.ar    1  UNL1        0.0220
     17 C          62.9595   80.4127   12.2634 C.ar    1  UNL1        0.0990
     18 N          64.0027   81.4904   12.2802 N.ar    1  UNL1       -0.2410
     19 C          63.9416   82.5772   13.3123 C.ar    1  UNL1        0.1135
     20 C          64.5329   90.5978   13.4367 C.3     1  UNL1        0.4191
     21 F          64.9787   91.3499   12.2178 F       1  UNL1       -0.1658
     22 F          63.1188   90.6272   12.9375 F       1  UNL1       -0.1658
     23 F          65.9471   90.5685   13.9358 F       1  UNL1       -0.1658
     24 C          65.5073   92.5577   16.3923 C.3     1  UNL1        0.0742
     25 S          64.1431   92.0471   16.0343 S.3     1  UNL1       -0.1128
@<TRIPOS>BOND
     1    24    25    1
     2    25     1    1
     3     1     2   ar
     4     2     3   ar
     5     3     4   ar
     6     4     5   ar
     7     5     6   ar
     8     6    20    1
     9    20    21    1
    10    20    22    1
    11    20    23    1
    12     4     7    1
    13     7     8   am
    14     8     9    2
    15     8    10   am
    16    10    14    1
    17    14    15   ar
    18    15    16   ar
    19    16    17   ar
    20    17    18   ar
    21    18    19   ar
    22     7    11    1
    23    11    12    1
    24     6     1   ar
    25    19    14   ar
    26    12     3    1
    27    10    13    1
@<TRIPOS>MOLECULE
*****
 25 27 0 0 0
SMALL
GASTEIGER

@<TRIPOS>ATOM
      1 C          63.3347   90.2588   12.0836 C.ar    1  UNL1        0.0289
      2 C          64.1158   89.9489   13.3262 C.ar    1  UNL1        0.0031
      3 C          64.1685   88.5436   13.8480 C.ar    1  UNL1       -0.0062
      4 C          63.4402   87.4481   13.1274 C.ar    1  UNL1        0.0513
      5 C          62.6591   87.7579   11.8848 C.ar    1  UNL1        0.0190
      6 C          62.6063   89.1632   11.3629 C.ar    1  UNL1        0.0783
      7 N          63.6731   86.1679   13.8735 N.am    1  UNL1       -0.2430
      8 C          63.1291   84.8200   13.5028 C.2     1  UNL1        0.3115
      9 O          62.2658   84.6684   12.2856 O.2     1  UNL1       -0.2519
     10 N          63.4486   83.6236   14.3494 N.am    1  UNL1       -0.2666
     11 C          64.5453   86.4721   15.0553 C.3     1  UNL1        0.1045
     12 C          64.8515   87.9404   15.0396 C.3     1  UNL1        0.0496
     13 H          64.0153   83.7231   15.1483 H       1  UNL1        0.1565
     14 C          62.9047   82.2757   13.9788 C.ar    1  UNL1        0.0709
     15 C          61.5800   81.8266   14.5204 C.ar    1  UNL1        0.0179
     16 C          61.0362   80.4787   14.1498 C.ar    1  UNL1        0.0220
     17 C          61.8172   79.5799   13.2375 C.ar    1  UNL1        0.0990
     18 N          63.1419   80.0289   12.6959 N.ar    1  UNL1       -0.2410
     19 C          63.6857   81.3768   13.0665 C.ar    1  UNL1        0.1135
     20 C          61.8253   89.4730   10.1204 C.3     1  UNL1        0.4191
     21 F          61.0442   89.7828    8.8779 F       1  UNL1       -0.1658
     22 F          60.6395   89.8477   10.9592 F       1  UNL1       -0.1658
     23 F          63.0110   89.0983    9.2816 F       1  UNL1       -0.1658
     24 C          64.4264   92.2101   10.7607 C.3     1  UNL1        0.0742
     25 S          63.2819   91.6640   11.5618 S.3     1  UNL1       -0.1128
@<TRIPOS>BOND
     1    24    25    1
     2    25     1    1
     3     1     2   ar
     4     2     3   ar
     5     3     4   ar
     6     4     5   ar
     7     5     6   ar
     8     6    20    1
     9    20    21    1
    10    20    22    1
    11    20    23    1
    12     4     7    1
    13     7     8   am
    14     8     9    2
    15     8    10   am
    16    10    14    1
    17    14    15   ar
    18    15    16   ar
    19    16    17   ar
    20    17    18   ar
    21    18    19   ar
    22     7    11    1
    23    11    12    1
    24     6     1   ar
    25    19    14   ar
    26    12     3    1
    27    10    13    1
@<TRIPOS>MOLECULE
*****
 25 27 0 0 0
SMALL
GASTEIGER

@<TRIPOS>ATOM
      1 C          63.4146   89.6230   12.9559 C.ar    1  UNL1        0.0289
      2 C          64.1097   88.9832   14.1211 C.ar    1  UNL1        0.0031
      3 C          64.2129   87.4892   14.2048 C.ar    1  UNL1       -0.0062
      4 C          63.6211   86.6348   13.1232 C.ar    1  UNL1        0.0513
      5 C          62.9260   87.2744   11.9581 C.ar    1  UNL1        0.0190
      6 C          62.8227   88.7686   11.8744 C.ar    1  UNL1        0.0783
      7 N          63.8766   85.1991   13.4748 N.am    1  UNL1       -0.2430
      8 C          63.4561   84.0058   12.6689 C.2     1  UNL1        0.3115
      9 O          62.7079   84.1952   11.3828 O.2     1  UNL1       -0.2519
     10 N          63.7839   82.6231   13.1493 N.am    1  UNL1       -0.2666
     11 C          64.6263   85.1662   14.7735 C.3     1  UNL1        0.1045
     12 C          64.8342   86.5815   15.2247 C.3     1  UNL1        0.0496
     13 H          64.2750   82.4989   13.9935 H       1  UNL1        0.1565
     14 C          63.3635   81.4298   12.3435 C.ar    1  UNL1        0.0709
     15 C          63.4870   81.4528   10.8488 C.ar    1  UNL1        0.0179
     16 C          63.0666   80.2594   10.0431 C.ar    1  UNL1        0.0220
     17 C          62.5227   79.0431   10.7322 C.ar    1  UNL1        0.0990
     18 N          62.3992   79.0201   12.2269 N.ar    1  UNL1       -0.2410
     19 C          62.8196   80.2135   13.0326 C.ar    1  UNL1        0.1135
     20 C          62.1277   89.4082   10.7092 C.3     1  UNL1        0.4191
     21 F          61.4326   90.0479    9.5441 F       1  UNL1       -0.1658
     22 F          60.8041   89.1959   11.3822 F       1  UNL1       -0.1658
     23 F          63.4512   89.6205   10.0362 F       1  UNL1       -0.1658
     24 C          64.5064   91.9302   12.4716 C.3     1  UNL1        0.0742
     25 S          63.3113   91.1171   12.8723 S.3     1  UNL1       -0.1128
@<TRIPOS>BOND
     1    24    25    1
     2    25     1    1
     3     1     2   ar
     4     2     3   ar
     5     3     4   ar
     6     4     5   ar
     7     5     6   ar
     8     6    20    1
     9    20    21    1
    10    20    22    1
    11    20    23    1
    12     4     7    1
    13     7     8   am
    14     8     9    2
    15     8    10   am
    16    10    14    1
    17    14    15   ar
    18    15    16   ar
    19    16    17   ar
    20    17    18   ar
    21    18    19   ar
    22     7    11    1
    23    11    12    1
    24     6     1   ar
    25    19    14   ar
    26    12     3    1
    27    10    13    1
@<TRIPOS>MOLECULE
*****
 25 27 0 0 0
SMALL
GASTEIGER

@<TRIPOS>ATOM
      1 C          60.5831   92.8163    2.3105 C.ar    1  UNL1        0.0289
      2 C          59.5720   93.4799    1.4232 C.ar    1  UNL1        0.0031
      3 C          59.9203   93.8039    0.0007 C.ar    1  UNL1       -0.0062
      4 C          61.2797   93.4643   -0.5347 C.ar    1  UNL1        0.0513
      5 C          62.2908   92.8007    0.3525 C.ar    1  UNL1        0.0190
      6 C          61.9426   92.4766    1.7751 C.ar    1  UNL1        0.0783
      7 N          61.3358   93.9017   -1.9684 N.am    1  UNL1       -0.2430
      8 C          62.5104   93.7549   -2.8896 C.2     1  UNL1        0.3115
      9 O          63.7768   93.1209   -2.3951 O.2     1  UNL1       -0.2519
     10 N          62.4188   94.2420   -4.3053 N.am    1  UNL1       -0.2666
     11 C          60.0111   94.5116   -2.3192 C.3     1  UNL1        0.1045
     12 C          59.1362   94.4512   -1.1022 C.3     1  UNL1        0.0496
     13 H          61.5876   94.6581   -4.6299 H       1  UNL1        0.1565
     14 C          63.5934   94.0952   -5.2267 C.ar    1  UNL1        0.0709
     15 C          63.8604   92.7807   -5.8979 C.ar    1  UNL1        0.0179
     16 C          65.0350   92.6340   -6.8192 C.ar    1  UNL1        0.0220
     17 C          65.9426   93.8019   -7.0691 C.ar    1  UNL1        0.0990
     18 N          65.6756   95.1164   -6.3979 N.ar    1  UNL1       -0.2410
     19 C          64.5010   95.2631   -5.4766 C.ar    1  UNL1        0.1135
     20 C          62.9537   91.8130    2.6623 C.3     1  UNL1        0.4191
     21 F          63.9648   91.1494    3.5495 F       1  UNL1       -0.1658
     22 F          62.4063   90.4695    2.2812 F       1  UNL1       -0.1658
     23 F          63.5011   93.1566    3.0434 F       1  UNL1       -0.1658
     24 C          58.8312   92.1032    4.0916 C.3     1  UNL1        0.0742
     25 S          60.2348   92.4923    3.7330 S.3     1  UNL1       -0.1128
@<TRIPOS>BOND
     1    24    25    1
     2    25     1    1
     3     1     2   ar
     4     2     3   ar
     5     3     4   ar
     6     4     5   ar
     7     5     6   ar
     8     6    20    1
     9    20    21    1
    10    20    22    1
    11    20    23    1
    12     4     7    1
    13     7     8   am
    14     8     9    2
    15     8    10   am
    16    10    14    1
    17    14    15   ar
    18    15    16   ar
    19    16    17   ar
    20    17    18   ar
    21    18    19   ar
    22     7    11    1
    23    11    12    1
    24     6     1   ar
    25    19    14   ar
    26    12     3    1
    27    10    13    1
