@<TRIPOS>MOLECULE
*****
 31 34 0 0 0
SMALL
GASTEIGER

@<TRIPOS>ATOM
      1 C          63.5357   90.6617   11.9651 C.ar    1  UNL1        0.0424
      2 C          64.3457   91.6501   11.1797 C.ar    1  UNL1        0.0779
      3 N          65.1826   92.4352   12.1458 N.ar    1  UNL1       -0.3253
      4 C          64.8898   91.9320   13.5282 C.ar    1  UNL1        0.0707
      5 C          65.4185   92.3303   14.8742 C.ar    1  UNL1        0.0734
      6 CL         66.4364   93.4264   14.9858 Cl      1  UNL1       -0.0807
      7 C          64.9293   91.6325   16.1086 C.ar    1  UNL1        0.0129
      8 C          63.9115   90.5364   15.9969 C.ar    1  UNL1        0.0010
      9 C          63.3827   90.1381   14.6509 C.ar    1  UNL1        0.0016
     10 C          63.8719   90.8359   13.4166 C.ar    1  UNL1        0.0200
     11 C          61.4711   87.5874   10.8025 C.ar    1  UNL1        0.0822
     12 C          60.6487   88.7142   10.2511 C.ar    1  UNL1        0.0530
     13 S          61.3220   90.0030   10.6196 S.2     1  UNL1       -0.0662
     14 C          62.5605   89.6727   11.3986 C.ar    1  UNL1        0.1119
     15 N          62.6527   88.1799   11.5116 N.ar    1  UNL1       -0.2412
     16 C          61.1657   86.1250   10.6682 C.3     1  UNL1        0.1192
     17 N          62.2303   85.1073   10.9524 N.3     1  UNL1       -0.2668
     18 C          63.0917   85.2855    8.5078 C.3     1  UNL1        0.0174
     19 C          63.0920   84.5922    9.8379 C.3     1  UNL1        0.0580
     20 C          63.9542   83.3838   10.0536 C.3     1  UNL1        0.0174
     21 C          62.4331   84.6046   12.3510 C.3     1  UNL1        0.1045
     22 C          63.5890   85.1028   13.1668 C.3     1  UNL1        0.1544
     23 O          63.6141   86.5256   13.6415 O.3     1  UNL1       -0.3805
     24 H          63.6861   87.1198   12.8782 H       1  UNL1        0.2105
     25 C          66.1436   93.5311   11.7916 C.3     1  UNL1        0.1062
     26 C          66.9016   93.4750   10.4983 C.3     1  UNL1        0.0276
     27 C          66.7447   94.5733    9.4888 C.3     1  UNL1        0.0341
     28 C          67.5026   94.5173    8.1956 C.3     1  UNL1        0.1422
     29 O          68.4175   93.3629    7.9120 O.3     1  UNL1       -0.3538
     30 C          68.5745   92.2647    8.9215 C.3     1  UNL1        0.1422
     31 C          67.8166   92.3207   10.2147 C.3     1  UNL1        0.0341
@<TRIPOS>BOND
     1    18    19    1
     2    19    20    1
     3    19    17    1
     4    17    21    1
     5    21    22    1
     6    22    23    1
     7    17    16    1
     8    16    11    1
     9    11    12   ar
    10    12    13   ar
    11    13    14   ar
    12    14     1    1
    13     1     2   ar
    14     2     3   ar
    15     3    25    1
    16    25    26    1
    17    26    27    1
    18    27    28    1
    19    28    29    1
    20    29    30    1
    21    30    31    1
    22     3     4   ar
    23     4     5   ar
    24     5     6    1
    25     5     7   ar
    26     7     8   ar
    27     8     9   ar
    28     9    10   ar
    29    14    15   ar
    30    15    11   ar
    31    10     1   ar
    32    31    26    1
    33    10     4   ar
    34    23    24    1
@<TRIPOS>MOLECULE
*****
 31 34 0 0 0
SMALL
GASTEIGER

@<TRIPOS>ATOM
      1 C          63.6514   91.0116   11.6659 C.ar    1  UNL1        0.0424
      2 C          64.5968   91.7449   10.7613 C.ar    1  UNL1        0.0779
      3 N          65.6573   92.3769   11.6134 N.ar    1  UNL1       -0.3253
      4 C          65.3672   92.0342   13.0446 C.ar    1  UNL1        0.0707
      5 C          66.0718   92.3814   14.3225 C.ar    1  UNL1        0.0734
      6 CL         67.3115   93.2252   14.2900 Cl      1  UNL1       -0.0807
      7 C          65.5366   91.8849   15.6328 C.ar    1  UNL1        0.0129
      8 C          64.2968   91.0411   15.6653 C.ar    1  UNL1        0.0010
      9 C          63.5923   90.6938   14.3874 C.ar    1  UNL1        0.0016
     10 C          64.1275   91.1904   13.0771 C.ar    1  UNL1        0.0200
     11 C          60.9690   88.4028   10.6339 C.ar    1  UNL1        0.0822
     12 C          60.1933   89.6807   10.5101 C.ar    1  UNL1        0.0530
     13 S          61.1037   90.8135   10.8817 S.2     1  UNL1       -0.0662
     14 C          62.4421   90.2357   11.2350 C.ar    1  UNL1        0.1119
     15 N          62.3588   88.7459   11.0819 N.ar    1  UNL1       -0.2412
     16 C          60.4467   87.0241   10.3580 C.3     1  UNL1        0.1192
     17 N          61.0135   86.2200    9.2258 N.3     1  UNL1       -0.2668
     18 C          63.1712   85.1720    8.2279 C.3     1  UNL1        0.0174
     19 C          62.2964   85.4651    9.4106 C.3     1  UNL1        0.0580
     20 C          62.7046   85.0032   10.7781 C.3     1  UNL1        0.0174
     21 C          60.2973   86.1707    7.9087 C.3     1  UNL1        0.1045
     22 C          58.9050   86.7161    7.7912 C.3     1  UNL1        0.1544
     23 O          58.6917   88.1592    7.4416 O.3     1  UNL1       -0.3805
     24 H          59.0250   88.7187    8.1604 H       1  UNL1        0.2105
     25 C          66.8061   93.2060   11.1208 C.3     1  UNL1        0.1062
     26 C          66.5478   94.4221   10.2813 C.3     1  UNL1        0.0276
     27 C          67.2358   94.5797    8.9578 C.3     1  UNL1        0.0341
     28 C          66.9775   95.7957    8.1183 C.3     1  UNL1        0.1422
     29 O          66.0312   96.8541    8.6025 O.3     1  UNL1       -0.3538
     30 C          65.3433   96.6964    9.9261 C.3     1  UNL1        0.1422
     31 C          65.6015   95.4805   10.7655 C.3     1  UNL1        0.0341
@<TRIPOS>BOND
     1    18    19    1
     2    19    20    1
     3    19    17    1
     4    17    21    1
     5    21    22    1
     6    22    23    1
     7    17    16    1
     8    16    11    1
     9    11    12   ar
    10    12    13   ar
    11    13    14   ar
    12    14     1    1
    13     1     2   ar
    14     2     3   ar
    15     3    25    1
    16    25    26    1
    17    26    27    1
    18    27    28    1
    19    28    29    1
    20    29    30    1
    21    30    31    1
    22     3     4   ar
    23     4     5   ar
    24     5     6    1
    25     5     7   ar
    26     7     8   ar
    27     8     9   ar
    28     9    10   ar
    29    14    15   ar
    30    15    11   ar
    31    10     1   ar
    32    31    26    1
    33    10     4   ar
    34    23    24    1
@<TRIPOS>MOLECULE
*****
 31 34 0 0 0
SMALL
GASTEIGER

@<TRIPOS>ATOM
      1 C          63.5464   87.0040   13.2063 C.ar    1  UNL1        0.0424
      2 C          63.9440   88.2626   13.9189 C.ar    1  UNL1        0.0779
      3 N          63.5031   89.4274   13.0830 N.ar    1  UNL1       -0.3253
      4 C          62.8330   88.8888   11.8538 C.ar    1  UNL1        0.0707
      5 C          62.2020   89.5686   10.6751 C.ar    1  UNL1        0.0734
      6 CL         62.1752   91.0664   10.5989 Cl      1  UNL1       -0.0807
      7 C          61.5977   88.7506    9.5725 C.ar    1  UNL1        0.0129
      8 C          61.6244   87.2528    9.6487 C.ar    1  UNL1        0.0010
      9 C          62.2555   86.5730   10.8275 C.ar    1  UNL1        0.0016
     10 C          62.8598   87.3909   11.9300 C.ar    1  UNL1        0.0200
     11 C          64.1672   83.2063   13.7143 C.ar    1  UNL1        0.0822
     12 C          64.1739   83.6935   15.1330 C.ar    1  UNL1        0.0530
     13 S          63.9421   85.1754   15.1154 S.2     1  UNL1       -0.0662
     14 C          63.7922   85.6041   13.6858 C.ar    1  UNL1        0.1119
     15 N          63.9313   84.3872   12.8200 N.ar    1  UNL1       -0.2412
     16 C          64.3621   81.7875   13.2684 C.3     1  UNL1        0.1192
     17 N          63.2965   81.1000   12.4673 N.3     1  UNL1       -0.2668
     18 C          63.8673   82.3750   10.2768 C.3     1  UNL1        0.0174
     19 C          63.3304   81.1573   10.9688 C.3     1  UNL1        0.0580
     20 C          62.8273   79.9969   10.1623 C.3     1  UNL1        0.0174
     21 C          62.1971   80.3551   13.1647 C.3     1  UNL1        0.1045
     22 C          61.2446   81.0897   14.0608 C.3     1  UNL1        0.1544
     23 O          59.9224   80.4758   14.4143 O.3     1  UNL1       -0.3805
     24 H          59.3744   80.4067   13.6168 H       1  UNL1        0.2105
     25 C          63.6980   90.8766   13.4175 C.3     1  UNL1        0.1062
     26 C          65.0588   91.4969   13.3005 C.3     1  UNL1        0.0276
     27 C          66.0922   91.2431   14.3577 C.3     1  UNL1        0.0341
     28 C          67.4529   91.8633   14.2408 C.3     1  UNL1        0.1422
     29 O          67.7802   92.7374   13.0665 O.3     1  UNL1       -0.3538
     30 C          66.7469   92.9912   12.0093 C.3     1  UNL1        0.1422
     31 C          65.3862   92.3710   12.1263 C.3     1  UNL1        0.0341
@<TRIPOS>BOND
     1    18    19    1
     2    19    20    1
     3    19    17    1
     4    17    21    1
     5    21    22    1
     6    22    23    1
     7    17    16    1
     8    16    11    1
     9    11    12   ar
    10    12    13   ar
    11    13    14   ar
    12    14     1    1
    13     1     2   ar
    14     2     3   ar
    15     3    25    1
    16    25    26    1
    17    26    27    1
    18    27    28    1
    19    28    29    1
    20    29    30    1
    21    30    31    1
    22     3     4   ar
    23     4     5   ar
    24     5     6    1
    25     5     7   ar
    26     7     8   ar
    27     8     9   ar
    28     9    10   ar
    29    14    15   ar
    30    15    11   ar
    31    10     1   ar
    32    31    26    1
    33    10     4   ar
    34    23    24    1
@<TRIPOS>MOLECULE
*****
 31 34 0 0 0
SMALL
GASTEIGER

@<TRIPOS>ATOM
      1 C          63.4690   90.6779   11.8874 C.ar    1  UNL1        0.0424
      2 C          64.3084   91.6692   11.1374 C.ar    1  UNL1        0.0779
      3 N          65.1604   92.4012   12.1316 N.ar    1  UNL1       -0.3253
      4 C          64.8474   91.8623   13.4960 C.ar    1  UNL1        0.0707
      5 C          65.3793   92.2038   14.8563 C.ar    1  UNL1        0.0734
      6 CL         66.4247   93.2689   15.0072 Cl      1  UNL1       -0.0807
      7 C          64.8658   91.4802   16.0657 C.ar    1  UNL1        0.0129
      8 C          63.8205   90.4151   15.9148 C.ar    1  UNL1        0.0010
      9 C          63.2886   90.0736   14.5545 C.ar    1  UNL1        0.0016
     10 C          63.8021   90.7972   13.3451 C.ar    1  UNL1        0.0200
     11 C          61.4054   87.7066   10.4806 C.ar    1  UNL1        0.0822
     12 C          60.4675   88.8518   10.2376 C.ar    1  UNL1        0.0530
     13 S          61.1264   90.1042   10.7350 S.2     1  UNL1       -0.0662
     14 C          62.4715   89.7331   11.2855 C.ar    1  UNL1        0.1119
     15 N          62.6439   88.2514   11.1282 N.ar    1  UNL1       -0.2412
     16 C          61.1498   86.2693   10.1365 C.3     1  UNL1        0.1192
     17 N          62.2801   85.3945    9.6814 N.3     1  UNL1       -0.2668
     18 C          62.6453   84.5590   12.1142 C.3     1  UNL1        0.0174
     19 C          62.9311   84.4479   10.6458 C.3     1  UNL1        0.0580
     20 C          63.8679   83.3903   10.1420 C.3     1  UNL1        0.0174
     21 C          62.7594   85.4663    8.2618 C.3     1  UNL1        0.1045
     22 C          61.8759   84.9903    7.1470 C.3     1  UNL1        0.1544
     23 O          60.4272   85.3785    7.1201 O.3     1  UNL1       -0.3805
     24 H          59.9699   84.9735    7.8736 H       1  UNL1        0.2105
     25 C          66.1513   93.4824   11.8166 C.3     1  UNL1        0.1062
     26 C          66.8993   93.4587   10.5166 C.3     1  UNL1        0.0276
     27 C          67.8294   92.3234   10.2070 C.3     1  UNL1        0.0341
     28 C          68.5773   92.2997    8.9070 C.3     1  UNL1        0.1422
     29 O          68.3951   93.4114    7.9166 O.3     1  UNL1       -0.3538
     30 C          67.4650   94.5467    8.2262 C.3     1  UNL1        0.1422
     31 C          66.7171   94.5704    9.5261 C.3     1  UNL1        0.0341
@<TRIPOS>BOND
     1    18    19    1
     2    19    20    1
     3    19    17    1
     4    17    21    1
     5    21    22    1
     6    22    23    1
     7    17    16    1
     8    16    11    1
     9    11    12   ar
    10    12    13   ar
    11    13    14   ar
    12    14     1    1
    13     1     2   ar
    14     2     3   ar
    15     3    25    1
    16    25    26    1
    17    26    27    1
    18    27    28    1
    19    28    29    1
    20    29    30    1
    21    30    31    1
    22     3     4   ar
    23     4     5   ar
    24     5     6    1
    25     5     7   ar
    26     7     8   ar
    27     8     9   ar
    28     9    10   ar
    29    14    15   ar
    30    15    11   ar
    31    10     1   ar
    32    31    26    1
    33    10     4   ar
    34    23    24    1
@<TRIPOS>MOLECULE
*****
 31 34 0 0 0
SMALL
GASTEIGER

@<TRIPOS>ATOM
      1 C          63.9784   87.6382   14.1371 C.ar    1  UNL1        0.0424
      2 C          64.5474   88.7420   14.9784 C.ar    1  UNL1        0.0779
      3 N          64.4003   90.0268   14.2184 N.ar    1  UNL1       -0.3253
      4 C          63.7403   89.7170   12.9074 C.ar    1  UNL1        0.0707
      5 C          63.3432   90.5885   11.7530 C.ar    1  UNL1        0.0734
      6 CL         63.6039   92.0648   11.8032 Cl      1  UNL1       -0.0807
      7 C          62.6853   89.9836   10.5483 C.ar    1  UNL1        0.0129
      8 C          62.4246   88.5073   10.4981 C.ar    1  UNL1        0.0010
      9 C          62.8217   87.6358   11.6526 C.ar    1  UNL1        0.0016
     10 C          63.4796   88.2407   12.8572 C.ar    1  UNL1        0.0200
     11 C          63.9423   83.7637   14.3679 C.ar    1  UNL1        0.0822
     12 C          63.7112   84.1417   15.8011 C.ar    1  UNL1        0.0530
     13 S          63.6967   85.6390   15.8890 S.2     1  UNL1       -0.0662
     14 C          63.9187   86.1865   14.5103 C.ar    1  UNL1        0.1119
     15 N          64.0705   85.0276   13.5703 N.ar    1  UNL1       -0.2412
     16 C          64.0297   82.3673   13.8275 C.3     1  UNL1        0.1192
     17 N          62.9541   81.8448   12.9219 N.3     1  UNL1       -0.2668
     18 C          62.4290   79.3032   13.0418 C.3     1  UNL1        0.0174
     19 C          62.0712   80.7208   13.3768 C.3     1  UNL1        0.0580
     20 C          60.8303   81.0145   14.1668 C.3     1  UNL1        0.0174
     21 C          62.7616   82.4463   11.5613 C.3     1  UNL1        0.1045
     22 C          63.8433   82.3277   10.5289 C.3     1  UNL1        0.1544
     23 O          65.1046   83.1274   10.6688 O.3     1  UNL1       -0.3805
     24 H          64.9001   84.0717   10.5818 H       1  UNL1        0.2105
     25 C          64.8364   91.3833   14.6870 C.3     1  UNL1        0.1062
     26 C          66.2776   91.7860   14.5809 C.3     1  UNL1        0.0276
     27 C          67.0008   91.6473   13.2742 C.3     1  UNL1        0.0341
     28 C          68.4419   92.0498   13.1680 C.3     1  UNL1        0.1422
     29 O          69.1597   92.5911   14.3688 O.3     1  UNL1       -0.3538
     30 C          68.4365   92.7298   15.6756 C.3     1  UNL1        0.1422
     31 C          66.9954   92.3272   15.7817 C.3     1  UNL1        0.0341
@<TRIPOS>BOND
     1    18    19    1
     2    19    20    1
     3    19    17    1
     4    17    21    1
     5    21    22    1
     6    22    23    1
     7    17    16    1
     8    16    11    1
     9    11    12   ar
    10    12    13   ar
    11    13    14   ar
    12    14     1    1
    13     1     2   ar
    14     2     3   ar
    15     3    25    1
    16    25    26    1
    17    26    27    1
    18    27    28    1
    19    28    29    1
    20    29    30    1
    21    30    31    1
    22     3     4   ar
    23     4     5   ar
    24     5     6    1
    25     5     7   ar
    26     7     8   ar
    27     8     9   ar
    28     9    10   ar
    29    14    15   ar
    30    15    11   ar
    31    10     1   ar
    32    31    26    1
    33    10     4   ar
    34    23    24    1
@<TRIPOS>MOLECULE
*****
 31 34 0 0 0
SMALL
GASTEIGER

@<TRIPOS>ATOM
      1 C          64.0716   88.8252   14.0211 C.ar    1  UNL1        0.0424
      2 C          64.8429   90.0167   14.5062 C.ar    1  UNL1        0.0779
      3 N          64.7797   91.0737   13.4438 N.ar    1  UNL1       -0.3253
      4 C          63.9692   90.5355   12.3021 C.ar    1  UNL1        0.0707
      5 C          63.5732   91.1312   10.9837 C.ar    1  UNL1        0.0734
      6 CL         64.0108   92.5209   10.6269 Cl      1  UNL1       -0.0807
      7 C          62.7396   90.3374   10.0221 C.ar    1  UNL1        0.0129
      8 C          62.3019   88.9477   10.3789 C.ar    1  UNL1        0.0010
      9 C          62.6979   88.3519   11.6973 C.ar    1  UNL1        0.0016
     10 C          63.5316   89.1458   12.6589 C.ar    1  UNL1        0.0200
     11 C          63.7216   85.1736   15.2898 C.ar    1  UNL1        0.0822
     12 C          63.4220   85.9452   16.5409 C.ar    1  UNL1        0.0530
     13 S          63.5166   87.4070   16.2178 S.2     1  UNL1       -0.0662
     14 C          63.8747   87.5389   14.7672 C.ar    1  UNL1        0.1119
     15 N          64.0014   86.1587   14.1937 N.ar    1  UNL1       -0.2412
     16 C          63.7384   83.6796   15.1581 C.3     1  UNL1        0.1192
     17 N          62.9964   83.0173   14.0353 N.3     1  UNL1       -0.2668
     18 C          62.5786   84.2518   11.7878 C.3     1  UNL1        0.0174
     19 C          63.3854   83.2938   12.6133 C.3     1  UNL1        0.0580
     20 C          64.5811   82.6124   12.0166 C.3     1  UNL1        0.0174
     21 C          61.8655   82.0784   14.3345 C.3     1  UNL1        0.1045
     22 C          61.9646   80.6348   13.9391 C.3     1  UNL1        0.1544
     23 O          63.2081   79.8556   14.2497 O.3     1  UNL1       -0.3805
     24 H          63.9508   80.2149   13.7396 H       1  UNL1        0.2105
     25 C          65.4153   92.4307   13.5113 C.3     1  UNL1        0.1062
     26 C          66.8335   92.5722   13.9789 C.3     1  UNL1        0.0276
     27 C          67.9373   91.8632   13.2516 C.3     1  UNL1        0.0341
     28 C          69.3555   92.0047   13.7192 C.3     1  UNL1        0.1422
     29 O          69.6699   92.8552   14.9141 O.3     1  UNL1       -0.3538
     30 C          68.5661   93.5641   15.6414 C.3     1  UNL1        0.1422
     31 C          67.1479   93.4227   15.1739 C.3     1  UNL1        0.0341
@<TRIPOS>BOND
     1    18    19    1
     2    19    20    1
     3    19    17    1
     4    17    21    1
     5    21    22    1
     6    22    23    1
     7    17    16    1
     8    16    11    1
     9    11    12   ar
    10    12    13   ar
    11    13    14   ar
    12    14     1    1
    13     1     2   ar
    14     2     3   ar
    15     3    25    1
    16    25    26    1
    17    26    27    1
    18    27    28    1
    19    28    29    1
    20    29    30    1
    21    30    31    1
    22     3     4   ar
    23     4     5   ar
    24     5     6    1
    25     5     7   ar
    26     7     8   ar
    27     8     9   ar
    28     9    10   ar
    29    14    15   ar
    30    15    11   ar
    31    10     1   ar
    32    31    26    1
    33    10     4   ar
    34    23    24    1
@<TRIPOS>MOLECULE
*****
 31 34 0 0 0
SMALL
GASTEIGER

@<TRIPOS>ATOM
      1 C          63.1311   88.5443   12.5310 C.ar    1  UNL1        0.0424
      2 C          63.3397   87.0628   12.6395 C.ar    1  UNL1        0.0779
      3 N          62.5616   86.4035   11.5395 N.ar    1  UNL1       -0.3253
      4 C          61.8721   87.4775   10.7513 C.ar    1  UNL1        0.0707
      5 C          60.9693   87.4215    9.5547 C.ar    1  UNL1        0.0734
      6 CL         60.6174   86.0984    8.9419 Cl      1  UNL1       -0.0807
      7 C          60.4185   88.6887    8.9710 C.ar    1  UNL1        0.0129
      8 C          60.7704   90.0118    9.5838 C.ar    1  UNL1        0.0010
      9 C          61.6732   90.0677   10.7804 C.ar    1  UNL1        0.0016
     10 C          62.2241   88.8006   11.3641 C.ar    1  UNL1        0.0200
     11 C          64.9958   91.4936   14.2311 C.ar    1  UNL1        0.0822
     12 C          64.2827   90.8873   15.4032 C.ar    1  UNL1        0.0530
     13 S          63.4974   89.7087   14.9091 S.2     1  UNL1       -0.0662
     14 C          63.7251   89.5866   13.4315 C.ar    1  UNL1        0.1119
     15 N          64.6511   90.6897   13.0125 N.ar    1  UNL1       -0.2412
     16 C          65.8954   92.6931   14.2706 C.3     1  UNL1        0.1192
     17 N          67.0695   92.7810   13.3412 N.3     1  UNL1       -0.2668
     18 C          66.2157   94.5935   11.6872 C.3     1  UNL1        0.0174
     19 C          66.8791   93.2715   11.9365 C.3     1  UNL1        0.0580
     20 C          67.3520   92.4400   10.7811 C.3     1  UNL1        0.0174
     21 C          68.4341   92.3784   13.8165 C.3     1  UNL1        0.1045
     22 C          68.8099   92.5589   15.2573 C.3     1  UNL1        0.1544
     23 O          68.8082   93.9294   15.8670 O.3     1  UNL1       -0.3805
     24 H          69.4980   94.4695   15.4505 H       1  UNL1        0.2105
     25 C          62.4862   84.9291   11.2743 C.3     1  UNL1        0.1062
     26 C          62.8384   83.9532   12.3577 C.3     1  UNL1        0.0276
     27 C          63.5900   82.6991   12.0223 C.3     1  UNL1        0.0341
     28 C          63.9421   81.7233   13.1056 C.3     1  UNL1        0.1422
     29 O          63.5426   82.0014   14.5244 O.3     1  UNL1       -0.3538
     30 C          62.7910   83.2554   14.8599 C.3     1  UNL1        0.1422
     31 C          62.4388   84.2313   13.7765 C.3     1  UNL1        0.0341
@<TRIPOS>BOND
     1    18    19    1
     2    19    20    1
     3    19    17    1
     4    17    21    1
     5    21    22    1
     6    22    23    1
     7    17    16    1
     8    16    11    1
     9    11    12   ar
    10    12    13   ar
    11    13    14   ar
    12    14     1    1
    13     1     2   ar
    14     2     3   ar
    15     3    25    1
    16    25    26    1
    17    26    27    1
    18    27    28    1
    19    28    29    1
    20    29    30    1
    21    30    31    1
    22     3     4   ar
    23     4     5   ar
    24     5     6    1
    25     5     7   ar
    26     7     8   ar
    27     8     9   ar
    28     9    10   ar
    29    14    15   ar
    30    15    11   ar
    31    10     1   ar
    32    31    26    1
    33    10     4   ar
    34    23    24    1
@<TRIPOS>MOLECULE
*****
 31 34 0 0 0
SMALL
GASTEIGER

@<TRIPOS>ATOM
      1 C          63.1926   88.5171   12.7971 C.ar    1  UNL1        0.0424
      2 C          63.4681   87.0432   12.8388 C.ar    1  UNL1        0.0779
      3 N          62.7742   86.4088   11.6700 N.ar    1  UNL1       -0.3253
      4 C          62.0699   87.4905   10.9060 C.ar    1  UNL1        0.0707
      5 C          61.2264   87.4574    9.6661 C.ar    1  UNL1        0.0734
      6 CL         60.9679   86.1544    8.9695 Cl      1  UNL1       -0.0807
      7 C          60.6416   88.7273    9.1227 C.ar    1  UNL1        0.0129
      8 C          60.9002   90.0303    9.8193 C.ar    1  UNL1        0.0010
      9 C          61.7436   90.0635   11.0592 C.ar    1  UNL1        0.0016
     10 C          62.3284   88.7936   11.6026 C.ar    1  UNL1        0.0200
     11 C          64.8460   91.4435   14.7384 C.ar    1  UNL1        0.0822
     12 C          64.0818   90.7630   15.8353 C.ar    1  UNL1        0.0530
     13 S          63.3695   89.5839   15.2416 S.2     1  UNL1       -0.0662
     14 C          63.6934   89.5357   13.7777 C.ar    1  UNL1        0.1119
     15 N          64.6058   90.6849   13.4668 N.ar    1  UNL1       -0.2412
     16 C          65.7001   92.6674   14.8870 C.3     1  UNL1        0.1192
     17 N          66.7376   92.9882   13.8523 N.3     1  UNL1       -0.2668
     18 C          68.6686   91.6245   12.7745 C.3     1  UNL1        0.0174
     19 C          68.1032   92.3745   13.9441 C.3     1  UNL1        0.0580
     20 C          68.9034   92.5107   15.2054 C.3     1  UNL1        0.0174
     21 C          66.4095   93.9226   12.7257 C.3     1  UNL1        0.1045
     22 C          65.7122   93.4065   11.5020 C.3     1  UNL1        0.1544
     23 O          65.1379   94.3680   10.5042 O.3     1  UNL1       -0.3805
     24 H          64.4077   94.8594   10.9119 H       1  UNL1        0.2105
     25 C          62.7831   84.9489   11.3257 C.3     1  UNL1        0.1062
     26 C          62.6982   83.9208   12.4148 C.3     1  UNL1        0.0276
     27 C          62.6613   82.4620   12.0679 C.3     1  UNL1        0.0341
     28 C          62.5765   81.4340   13.1569 C.3     1  UNL1        0.1422
     29 O          62.5285   81.8649   14.5929 O.3     1  UNL1       -0.3538
     30 C          62.5654   83.3237   14.9398 C.3     1  UNL1        0.1422
     31 C          62.6503   84.3517   13.8508 C.3     1  UNL1        0.0341
@<TRIPOS>BOND
     1    18    19    1
     2    19    20    1
     3    19    17    1
     4    17    21    1
     5    21    22    1
     6    22    23    1
     7    17    16    1
     8    16    11    1
     9    11    12   ar
    10    12    13   ar
    11    13    14   ar
    12    14     1    1
    13     1     2   ar
    14     2     3   ar
    15     3    25    1
    16    25    26    1
    17    26    27    1
    18    27    28    1
    19    28    29    1
    20    29    30    1
    21    30    31    1
    22     3     4   ar
    23     4     5   ar
    24     5     6    1
    25     5     7   ar
    26     7     8   ar
    27     8     9   ar
    28     9    10   ar
    29    14    15   ar
    30    15    11   ar
    31    10     1   ar
    32    31    26    1
    33    10     4   ar
    34    23    24    1
@<TRIPOS>MOLECULE
*****
 31 34 0 0 0
SMALL
GASTEIGER

@<TRIPOS>ATOM
      1 C          64.1252   89.0384   13.9023 C.ar    1  UNL1        0.0424
      2 C          64.9395   90.2298   14.3114 C.ar    1  UNL1        0.0779
      3 N          64.8387   91.2562   13.2221 N.ar    1  UNL1       -0.3253
      4 C          63.9620   90.6991   12.1400 C.ar    1  UNL1        0.0707
      5 C          63.5083   91.2628   10.8261 C.ar    1  UNL1        0.0734
      6 CL         63.9492   92.6335   10.4057 Cl      1  UNL1       -0.0807
      7 C          62.6136   90.4559    9.9326 C.ar    1  UNL1        0.0129
      8 C          62.1727   89.0851   10.3530 C.ar    1  UNL1        0.0010
      9 C          62.6264   88.5214   11.6669 C.ar    1  UNL1        0.0016
     10 C          63.5211   89.3284   12.5603 C.ar    1  UNL1        0.0200
     11 C          63.8486   85.4326   15.3122 C.ar    1  UNL1        0.0822
     12 C          63.4939   86.2450   16.5223 C.ar    1  UNL1        0.0530
     13 S          63.5543   87.6946   16.1414 S.2     1  UNL1       -0.0662
     14 C          63.9464   87.7781   14.6959 C.ar    1  UNL1        0.1119
     15 N          64.1283   86.3802   14.1836 N.ar    1  UNL1       -0.2412
     16 C          63.9125   83.9356   15.2430 C.3     1  UNL1        0.1192
     17 N          63.1750   83.2026   14.1620 N.3     1  UNL1       -0.2668
     18 C          64.5929   82.8910   12.0074 C.3     1  UNL1        0.0174
     19 C          63.4378   83.5280   12.7215 C.3     1  UNL1        0.0580
     20 C          62.5455   84.4903   11.9950 C.3     1  UNL1        0.0174
     21 C          62.1746   82.1443   14.5214 C.3     1  UNL1        0.1045
     22 C          61.6526   81.2160   13.4652 C.3     1  UNL1        0.1544
     23 O          62.0882   79.7807   13.4460 O.3     1  UNL1       -0.3805
     24 H          63.0369   79.7333   13.2492 H       1  UNL1        0.2105
     25 C          65.4986   92.6032   13.2161 C.3     1  UNL1        0.1062
     26 C          66.3385   93.0217   12.0458 C.3     1  UNL1        0.0276
     27 C          66.2420   94.4216   11.5158 C.3     1  UNL1        0.0341
     28 C          67.0818   94.8401   10.3456 C.3     1  UNL1        0.1422
     29 O          68.0183   93.8587    9.7054 O.3     1  UNL1       -0.3538
     30 C          68.1148   92.4588   10.2355 C.3     1  UNL1        0.1422
     31 C          67.2750   92.0403   11.4057 C.3     1  UNL1        0.0341
@<TRIPOS>BOND
     1    18    19    1
     2    19    20    1
     3    19    17    1
     4    17    21    1
     5    21    22    1
     6    22    23    1
     7    17    16    1
     8    16    11    1
     9    11    12   ar
    10    12    13   ar
    11    13    14   ar
    12    14     1    1
    13     1     2   ar
    14     2     3   ar
    15     3    25    1
    16    25    26    1
    17    26    27    1
    18    27    28    1
    19    28    29    1
    20    29    30    1
    21    30    31    1
    22     3     4   ar
    23     4     5   ar
    24     5     6    1
    25     5     7   ar
    26     7     8   ar
    27     8     9   ar
    28     9    10   ar
    29    14    15   ar
    30    15    11   ar
    31    10     1   ar
    32    31    26    1
    33    10     4   ar
    34    23    24    1
