@<TRIPOS>MOLECULE
*****
 34 37 0 0 0
SMALL
GASTEIGER

@<TRIPOS>ATOM
      1 C          61.4548   89.9469   12.6027 C.2     1  UNL1        0.2459
      2 O          61.2025   89.5720   14.0329 O.2     1  UNL1       -0.2730
      3 N          62.7288   90.6417   12.2229 N.am    1  UNL1       -0.2781
      4 C          62.9810   91.0166   10.7926 C.3     1  UNL1        0.0935
      5 C          64.2550   91.7115   10.4129 C.3     1  UNL1        0.0219
      6 C          65.2767   92.0314   11.4635 C.3     1  UNL1        0.0078
      7 C          65.0244   91.6565   12.8938 C.3     1  UNL1        0.0419
      8 C          63.7505   90.9617   13.2735 C.3     1  UNL1        0.0953
      9 C          66.0461   91.9764   13.9444 C.ar    1  UNL1       -0.0209
     10 C          67.5080   91.8936   13.6188 C.ar    1  UNL1       -0.0042
     11 C          68.5297   92.2136   14.6694 C.ar    1  UNL1       -0.0003
     12 C          68.0896   92.6163   16.0456 C.ar    1  UNL1       -0.0000
     13 C          66.6277   92.6991   16.3712 C.ar    1  UNL1       -0.0003
     14 C          65.6060   92.3792   15.3206 C.ar    1  UNL1       -0.0042
     15 C          60.4331   89.6269   11.5521 C.3     1  UNL1        0.1780
     16 N          60.8408   88.8962   10.3072 N.pl3   1  UNL1       -0.2868
     17 C          61.4904   87.5479   10.4077 C.ar    1  UNL1        0.0498
     18 C          61.6196   86.8752   11.7422 C.ar    1  UNL1        0.0155
     19 C          62.2692   85.5270   11.8428 C.ar    1  UNL1        0.0135
     20 C          62.7895   84.8513   10.6088 C.ar    1  UNL1        0.0683
     21 CL         63.4391   83.5029   10.7094 Cl      1  UNL1       -0.0814
     22 C          62.6603   85.5239    9.2743 C.ar    1  UNL1        0.0694
     23 CL         63.1807   84.8481    8.0403 Cl      1  UNL1       -0.0813
     24 C          62.0108   86.8722    9.1738 C.ar    1  UNL1        0.0268
     25 C          60.5990   89.5138    8.9618 C.3     1  UNL1        0.1986
     26 N          58.6250   88.2724    7.0744 N.1     1  UNL1       -0.1941
     27 C          59.6120   88.8930    8.0181 C.1     1  UNL1        0.0954
     28 C          63.4982   90.5867   14.7039 C.3     1  UNL1        0.0926
     29 N          63.6408   89.1590   15.1413 N.3     1  UNL1       -0.2670
     30 C          63.1062   88.7260   16.4742 C.3     1  UNL1        0.1047
     31 C          63.2488   87.2983   16.9116 C.3     1  UNL1        0.1595
     32 O          63.9259   86.3036   16.0161 O.3     1  UNL1       -0.3508
     33 C          64.4605   86.7366   14.6831 C.3     1  UNL1        0.1595
     34 C          64.3180   88.1643   14.2457 C.3     1  UNL1        0.1047
@<TRIPOS>BOND
     1    26    27    3
     2    27    25    1
     3    25    16    1
     4    16    15    1
     5    15     1    1
     6     1     2    2
     7     1     3   am
     8     3     4    1
     9     4     5    1
    10     5     6    1
    11     6     7    1
    12     7     9    1
    13     9    10   ar
    14    10    11   ar
    15    11    12   ar
    16    12    13   ar
    17    13    14   ar
    18     7     8    1
    19     8    28    1
    20    28    29    1
    21    29    30    1
    22    30    31    1
    23    31    32    1
    24    32    33    1
    25    33    34    1
    26    16    17    1
    27    17    18   ar
    28    18    19   ar
    29    19    20   ar
    30    20    21    1
    31    20    22   ar
    32    22    23    1
    33    22    24   ar
    34     8     3    1
    35    34    29    1
    36    24    17   ar
    37    14     9   ar
@<TRIPOS>MOLECULE
*****
 34 37 0 0 0
SMALL
GASTEIGER

@<TRIPOS>ATOM
      1 C          64.3172   89.9826   13.3579 C.2     1  UNL1        0.2459
      2 O          65.1268   89.6301   14.5704 O.2     1  UNL1       -0.2730
      3 N          63.5950   88.9083   12.6000 N.am    1  UNL1       -0.2781
      4 C          62.7854   89.2607   11.3875 C.3     1  UNL1        0.0935
      5 C          62.0632   88.1864   10.6297 C.3     1  UNL1        0.0219
      6 C          62.1506   86.7597   11.0844 C.3     1  UNL1        0.0078
      7 C          62.9602   86.4072   12.2970 C.3     1  UNL1        0.0419
      8 C          63.6824   87.4815   13.0548 C.3     1  UNL1        0.0953
      9 C          63.0476   84.9805   12.7517 C.ar    1  UNL1       -0.0209
     10 C          62.1048   84.4683   13.7998 C.ar    1  UNL1       -0.0042
     11 C          62.1922   83.0415   14.2545 C.ar    1  UNL1       -0.0003
     12 C          63.2224   82.1270   13.6611 C.ar    1  UNL1       -0.0000
     13 C          64.1652   82.6392   12.6130 C.ar    1  UNL1       -0.0003
     14 C          64.0778   84.0660   12.1583 C.ar    1  UNL1       -0.0042
     15 C          64.2298   91.4093   12.9032 C.3     1  UNL1        0.1780
     16 N          65.3996   92.3293   13.0908 N.pl3   1  UNL1       -0.2868
     17 C          66.0124   93.0146   11.9055 C.ar    1  UNL1        0.0498
     18 C          65.7074   94.4578   11.6331 C.ar    1  UNL1        0.0155
     19 C          66.3203   95.1431   10.4480 C.ar    1  UNL1        0.0135
     20 C          67.2381   94.3853    9.5352 C.ar    1  UNL1        0.0683
     21 CL         67.8509   95.0706    8.3499 Cl      1  UNL1       -0.0814
     22 C          67.5431   92.9421    9.8076 C.ar    1  UNL1        0.0694
     23 CL         68.4609   92.1843    8.8947 Cl      1  UNL1       -0.0813
     24 C          66.9303   92.2568   10.9927 C.ar    1  UNL1        0.0268
     25 C          65.9566   92.5640   14.4637 C.3     1  UNL1        0.1986
     26 N          68.9105   92.9262   14.8422 N.1     1  UNL1       -0.1941
     27 C          67.4336   92.7451   14.6529 C.1     1  UNL1        0.0954
     28 C          64.4920   87.1291   14.2674 C.3     1  UNL1        0.0926
     29 N          63.8238   87.0015   15.6042 N.3     1  UNL1       -0.2670
     30 C          63.3336   88.2265   16.3176 C.3     1  UNL1        0.1047
     31 C          62.6653   88.0989   17.6545 C.3     1  UNL1        0.1595
     32 O          62.4873   86.7463   18.2779 O.3     1  UNL1       -0.3508
     33 C          62.9776   85.5212   17.5645 C.3     1  UNL1        0.1595
     34 C          63.6458   85.6488   16.2277 C.3     1  UNL1        0.1047
@<TRIPOS>BOND
     1    26    27    3
     2    27    25    1
     3    25    16    1
     4    16    15    1
     5    15     1    1
     6     1     2    2
     7     1     3   am
     8     3     4    1
     9     4     5    1
    10     5     6    1
    11     6     7    1
    12     7     9    1
    13     9    10   ar
    14    10    11   ar
    15    11    12   ar
    16    12    13   ar
    17    13    14   ar
    18     7     8    1
    19     8    28    1
    20    28    29    1
    21    29    30    1
    22    30    31    1
    23    31    32    1
    24    32    33    1
    25    33    34    1
    26    16    17    1
    27    17    18   ar
    28    18    19   ar
    29    19    20   ar
    30    20    21    1
    31    20    22   ar
    32    22    23    1
    33    22    24   ar
    34     8     3    1
    35    34    29    1
    36    24    17   ar
    37    14     9   ar
@<TRIPOS>MOLECULE
*****
 34 37 0 0 0
SMALL
GASTEIGER

@<TRIPOS>ATOM
      1 C          62.0963   90.4149   12.1640 C.2     1  UNL1        0.2459
      2 O          61.6676   90.1041   13.5674 O.2     1  UNL1       -0.2730
      3 N          63.4260   91.0617   11.9118 N.am    1  UNL1       -0.2781
      4 C          63.8547   91.3725   10.5084 C.3     1  UNL1        0.0935
      5 C          65.1844   92.0193   10.2563 C.3     1  UNL1        0.0219
      6 C          66.0853   92.3553   11.4075 C.3     1  UNL1        0.0078
      7 C          65.6566   92.0445   12.8109 C.3     1  UNL1        0.0419
      8 C          64.3269   91.3977   13.0630 C.3     1  UNL1        0.0953
      9 C          66.5575   92.3805   13.9622 C.ar    1  UNL1       -0.0209
     10 C          67.1889   91.2825   14.7658 C.ar    1  UNL1       -0.0042
     11 C          68.0898   91.6185   15.9170 C.ar    1  UNL1       -0.0003
     12 C          68.3594   93.0525   16.2647 C.ar    1  UNL1       -0.0000
     13 C          67.7281   94.1505   15.4611 C.ar    1  UNL1       -0.0003
     14 C          66.8271   93.8145   14.3099 C.ar    1  UNL1       -0.0042
     15 C          61.1953   90.0789   11.0127 C.3     1  UNL1        0.1780
     16 N          60.5128   88.7443   10.9591 N.pl3   1  UNL1       -0.2868
     17 C          61.2913   87.5182   10.5838 C.ar    1  UNL1        0.0498
     18 C          61.6644   87.2761    9.1512 C.ar    1  UNL1        0.0155
     19 C          62.4429   86.0502    8.7758 C.ar    1  UNL1        0.0135
     20 C          62.8483   85.0663    9.8330 C.ar    1  UNL1        0.0683
     21 CL         63.6268   83.8403    9.4576 Cl      1  UNL1       -0.0814
     22 C          62.4752   85.3084   11.2656 C.ar    1  UNL1        0.0694
     23 CL         62.8806   84.3245   12.3227 Cl      1  UNL1       -0.0813
     24 C          61.6967   86.5344   11.6409 C.ar    1  UNL1        0.0268
     25 C          59.0518   88.6356   11.2809 C.3     1  UNL1        0.1986
     26 N          58.1418   88.6295   14.1396 N.1     1  UNL1       -0.1941
     27 C          58.5968   88.6326   12.7103 C.1     1  UNL1        0.0954
     28 C          63.8981   91.0869   14.4665 C.3     1  UNL1        0.0926
     29 N          63.8580   89.6644   14.9408 N.3     1  UNL1       -0.2670
     30 C          64.4276   88.5721   14.0850 C.3     1  UNL1        0.1047
     31 C          64.3875   87.1497   14.5593 C.3     1  UNL1        0.1595
     32 O          63.7777   86.8195   15.8893 O.3     1  UNL1       -0.3508
     33 C          63.2081   87.9118   16.7452 C.3     1  UNL1        0.1595
     34 C          63.2482   89.3343   16.2709 C.3     1  UNL1        0.1047
@<TRIPOS>BOND
     1    26    27    3
     2    27    25    1
     3    25    16    1
     4    16    15    1
     5    15     1    1
     6     1     2    2
     7     1     3   am
     8     3     4    1
     9     4     5    1
    10     5     6    1
    11     6     7    1
    12     7     9    1
    13     9    10   ar
    14    10    11   ar
    15    11    12   ar
    16    12    13   ar
    17    13    14   ar
    18     7     8    1
    19     8    28    1
    20    28    29    1
    21    29    30    1
    22    30    31    1
    23    31    32    1
    24    32    33    1
    25    33    34    1
    26    16    17    1
    27    17    18   ar
    28    18    19   ar
    29    19    20   ar
    30    20    21    1
    31    20    22   ar
    32    22    23    1
    33    22    24   ar
    34     8     3    1
    35    34    29    1
    36    24    17   ar
    37    14     9   ar
@<TRIPOS>MOLECULE
*****
 34 37 0 0 0
SMALL
GASTEIGER

@<TRIPOS>ATOM
      1 C          61.6427   87.1713   10.8534 C.2     1  UNL1        0.2459
      2 O          60.9993   87.2364   12.2068 O.2     1  UNL1       -0.2730
      3 N          62.3656   85.9285   10.4257 N.am    1  UNL1       -0.2781
      4 C          63.0090   85.8633    9.0723 C.3     1  UNL1        0.0935
      5 C          63.7319   84.6205    8.6446 C.3     1  UNL1        0.0219
      6 C          63.8114   83.4430    9.5704 C.3     1  UNL1        0.0078
      7 C          63.1681   83.5082   10.9238 C.3     1  UNL1        0.0419
      8 C          62.4451   84.7509   11.3515 C.3     1  UNL1        0.0953
      9 C          63.2476   82.3306   11.8496 C.ar    1  UNL1       -0.0209
     10 C          64.2635   82.3113   12.9529 C.ar    1  UNL1       -0.0042
     11 C          64.3431   81.1337   13.8787 C.ar    1  UNL1       -0.0003
     12 C          63.4066   79.9755   13.7011 C.ar    1  UNL1       -0.0000
     13 C          62.3907   79.9948   12.5977 C.ar    1  UNL1       -0.0003
     14 C          62.3112   81.1724   11.6720 C.ar    1  UNL1       -0.0042
     15 C          61.5631   88.3488    9.9277 C.3     1  UNL1        0.1780
     16 N          61.3965   89.7313   10.4853 N.pl3   1  UNL1       -0.2868
     17 C          62.5957   90.5000   10.9553 C.ar    1  UNL1        0.0498
     18 C          63.3034   91.4328   10.0177 C.ar    1  UNL1        0.0155
     19 C          64.5026   92.2015   10.4877 C.ar    1  UNL1        0.0135
     20 C          64.9941   92.0375   11.8954 C.ar    1  UNL1        0.0683
     21 CL         66.1933   92.8063   12.3655 Cl      1  UNL1       -0.0814
     22 C          64.2864   91.1048   12.8330 C.ar    1  UNL1        0.0694
     23 CL         64.7779   90.9408   14.2407 Cl      1  UNL1       -0.0813
     24 C          63.0872   90.3360   12.3630 C.ar    1  UNL1        0.0268
     25 C          60.0306   90.3451   10.5728 C.3     1  UNL1        0.1986
     26 N          58.1439   89.5022   12.7477 N.1     1  UNL1       -0.1941
     27 C          59.0872   89.9236   11.6603 C.1     1  UNL1        0.0954
     28 C          61.8017   84.8161   12.7049 C.3     1  UNL1        0.0926
     29 N          62.6364   85.0961   13.9194 N.3     1  UNL1       -0.2670
     30 C          63.8855   85.9176   13.7979 C.3     1  UNL1        0.1047
     31 C          64.7201   86.1975   15.0124 C.3     1  UNL1        0.1595
     32 O          64.3057   85.6560   16.3484 O.3     1  UNL1       -0.3508
     33 C          63.0565   84.8344   16.4700 C.3     1  UNL1        0.1595
     34 C          62.2218   84.5545   15.2555 C.3     1  UNL1        0.1047
@<TRIPOS>BOND
     1    26    27    3
     2    27    25    1
     3    25    16    1
     4    16    15    1
     5    15     1    1
     6     1     2    2
     7     1     3   am
     8     3     4    1
     9     4     5    1
    10     5     6    1
    11     6     7    1
    12     7     9    1
    13     9    10   ar
    14    10    11   ar
    15    11    12   ar
    16    12    13   ar
    17    13    14   ar
    18     7     8    1
    19     8    28    1
    20    28    29    1
    21    29    30    1
    22    30    31    1
    23    31    32    1
    24    32    33    1
    25    33    34    1
    26    16    17    1
    27    17    18   ar
    28    18    19   ar
    29    19    20   ar
    30    20    21    1
    31    20    22   ar
    32    22    23    1
    33    22    24   ar
    34     8     3    1
    35    34    29    1
    36    24    17   ar
    37    14     9   ar
@<TRIPOS>MOLECULE
*****
 34 37 0 0 0
SMALL
GASTEIGER

@<TRIPOS>ATOM
      1 C          63.7866   89.4886   12.8453 C.2     1  UNL1        0.2459
      2 O          64.6983   89.3120   14.0233 O.2     1  UNL1       -0.2730
      3 N          63.1258   88.2945   12.2227 N.am    1  UNL1       -0.2781
      4 C          62.2141   88.4711   11.0448 C.3     1  UNL1        0.0935
      5 C          61.5533   87.2771   10.4223 C.3     1  UNL1        0.0219
      6 C          61.8041   85.9065   10.9777 C.3     1  UNL1        0.0078
      7 C          62.7158   85.7299   12.1557 C.3     1  UNL1        0.0419
      8 C          63.3766   86.9239   12.7782 C.3     1  UNL1        0.0953
      9 C          62.9667   84.3593   12.7111 C.ar    1  UNL1       -0.0209
     10 C          64.0815   83.5198   12.1614 C.ar    1  UNL1       -0.0042
     11 C          64.3324   82.1492   12.7168 C.ar    1  UNL1       -0.0003
     12 C          63.4684   81.6181   13.8220 C.ar    1  UNL1       -0.0000
     13 C          62.3536   82.4576   14.3717 C.ar    1  UNL1       -0.0003
     14 C          62.1027   83.8282   13.8163 C.ar    1  UNL1       -0.0042
     15 C          63.5357   90.8592   12.2899 C.3     1  UNL1        0.1780
     16 N          64.6849   91.7924   12.0481 N.pl3   1  UNL1       -0.2868
     17 C          65.7418   91.9684   13.0979 C.ar    1  UNL1        0.0498
     18 C          67.1917   91.8664   12.7270 C.ar    1  UNL1        0.0155
     19 C          68.2486   92.0424   13.7768 C.ar    1  UNL1        0.0135
     20 C          67.8556   92.3204   15.1974 C.ar    1  UNL1        0.0683
     21 CL         68.9125   92.4964   16.2472 Cl      1  UNL1       -0.0814
     22 C          66.4058   92.4224   15.5683 C.ar    1  UNL1        0.0694
     23 CL         66.0128   92.7004   16.9890 Cl      1  UNL1       -0.0813
     24 C          65.3489   92.2464   14.5186 C.ar    1  UNL1        0.0268
     25 C          64.7773   92.5496   10.7566 C.3     1  UNL1        0.1986
     26 N          66.5243   94.9809   10.5649 N.1     1  UNL1       -0.1941
     27 C          65.6508   93.7653   10.6607 C.1     1  UNL1        0.0954
     28 C          64.2884   86.7474   13.9562 C.3     1  UNL1        0.0926
     29 N          63.7407   86.8430   15.3494 N.3     1  UNL1       -0.2670
     30 C          63.4409   85.5944   16.1247 C.3     1  UNL1        0.1047
     31 C          62.8933   85.6899   17.5179 C.3     1  UNL1        0.1595
     32 O          62.6454   87.0341   18.1357 O.3     1  UNL1       -0.3508
     33 C          62.9452   88.2827   17.3604 C.3     1  UNL1        0.1595
     34 C          63.4928   88.1872   15.9672 C.3     1  UNL1        0.1047
@<TRIPOS>BOND
     1    26    27    3
     2    27    25    1
     3    25    16    1
     4    16    15    1
     5    15     1    1
     6     1     2    2
     7     1     3   am
     8     3     4    1
     9     4     5    1
    10     5     6    1
    11     6     7    1
    12     7     9    1
    13     9    10   ar
    14    10    11   ar
    15    11    12   ar
    16    12    13   ar
    17    13    14   ar
    18     7     8    1
    19     8    28    1
    20    28    29    1
    21    29    30    1
    22    30    31    1
    23    31    32    1
    24    32    33    1
    25    33    34    1
    26    16    17    1
    27    17    18   ar
    28    18    19   ar
    29    19    20   ar
    30    20    21    1
    31    20    22   ar
    32    22    23    1
    33    22    24   ar
    34     8     3    1
    35    34    29    1
    36    24    17   ar
    37    14     9   ar
@<TRIPOS>MOLECULE
*****
 34 37 0 0 0
SMALL
GASTEIGER

@<TRIPOS>ATOM
      1 C          63.1188   88.1539   12.7473 C.2     1  UNL1        0.2459
      2 O          61.9321   88.0040   11.8421 O.2     1  UNL1       -0.2730
      3 N          63.7132   86.9470   13.4108 N.am    1  UNL1       -0.2781
      4 C          64.8998   87.0969   14.3160 C.3     1  UNL1        0.0935
      5 C          65.4941   85.8901   14.9795 C.3     1  UNL1        0.0219
      6 C          64.9018   84.5333   14.7378 C.3     1  UNL1        0.0078
      7 C          63.7152   84.3834   13.8326 C.3     1  UNL1        0.0419
      8 C          63.1209   85.5903   13.1691 C.3     1  UNL1        0.0953
      9 C          63.1229   83.0267   13.5909 C.ar    1  UNL1       -0.0209
     10 C          63.6449   82.1679   12.4774 C.ar    1  UNL1       -0.0042
     11 C          63.0527   80.8112   12.2357 C.ar    1  UNL1       -0.0003
     12 C          61.9383   80.3132   13.1076 C.ar    1  UNL1       -0.0000
     13 C          61.4163   81.1719   14.2211 C.ar    1  UNL1       -0.0003
     14 C          62.0086   82.5286   14.4628 C.ar    1  UNL1       -0.0042
     15 C          63.7111   89.5106   12.9890 C.3     1  UNL1        0.1780
     16 N          63.7318   90.0839   14.3749 N.pl3   1  UNL1       -0.2868
     17 C          64.8652   90.9678   14.8041 C.ar    1  UNL1        0.0498
     18 C          64.7409   91.7956   16.0488 C.ar    1  UNL1        0.0155
     19 C          65.8742   92.6795   16.4779 C.ar    1  UNL1        0.0135
     20 C          67.1319   92.7356   15.6624 C.ar    1  UNL1        0.0683
     21 CL         68.2653   93.6196   16.0916 Cl      1  UNL1       -0.0814
     22 C          67.2562   91.9078   14.4177 C.ar    1  UNL1        0.0694
     23 CL         68.5139   91.9639   13.6022 Cl      1  UNL1       -0.0813
     24 C          66.1229   91.0239   13.9885 C.ar    1  UNL1        0.0268
     25 C          62.6192   89.7732   15.3318 C.3     1  UNL1        0.1986
     26 N          63.0623   87.8179   17.5635 N.1     1  UNL1       -0.1941
     27 C          62.8407   88.7955   16.4477 C.1     1  UNL1        0.0954
     28 C          61.9342   85.4404   12.2639 C.3     1  UNL1        0.0926
     29 N          62.1281   85.3734   10.7780 N.3     1  UNL1       -0.2670
     30 C          63.2844   84.6079   10.2063 C.3     1  UNL1        0.1047
     31 C          63.4783   84.5408    8.7204 C.3     1  UNL1        0.1595
     32 O          62.5159   85.2393    7.8062 O.3     1  UNL1       -0.3508
     33 C          61.3595   86.0049    8.3779 C.3     1  UNL1        0.1595
     34 C          61.1656   86.0719    9.8638 C.3     1  UNL1        0.1047
@<TRIPOS>BOND
     1    26    27    3
     2    27    25    1
     3    25    16    1
     4    16    15    1
     5    15     1    1
     6     1     2    2
     7     1     3   am
     8     3     4    1
     9     4     5    1
    10     5     6    1
    11     6     7    1
    12     7     9    1
    13     9    10   ar
    14    10    11   ar
    15    11    12   ar
    16    12    13   ar
    17    13    14   ar
    18     7     8    1
    19     8    28    1
    20    28    29    1
    21    29    30    1
    22    30    31    1
    23    31    32    1
    24    32    33    1
    25    33    34    1
    26    16    17    1
    27    17    18   ar
    28    18    19   ar
    29    19    20   ar
    30    20    21    1
    31    20    22   ar
    32    22    23    1
    33    22    24   ar
    34     8     3    1
    35    34    29    1
    36    24    17   ar
    37    14     9   ar
@<TRIPOS>MOLECULE
*****
 34 37 0 0 0
SMALL
GASTEIGER

@<TRIPOS>ATOM
      1 C          62.0488   89.8536   11.8573 C.2     1  UNL1        0.2459
      2 O          61.9590   91.2263   11.2594 O.2     1  UNL1       -0.2730
      3 N          63.1289   89.5367   12.8489 N.am    1  UNL1       -0.2781
      4 C          63.2188   88.1640   13.4469 C.3     1  UNL1        0.0935
      5 C          64.2988   87.8471   14.4384 C.3     1  UNL1        0.0219
      6 C          65.2889   88.9029   14.8319 C.3     1  UNL1        0.0078
      7 C          65.1991   90.2756   14.2339 C.3     1  UNL1        0.0419
      8 C          64.1191   90.5925   13.2424 C.3     1  UNL1        0.0953
      9 C          66.1892   91.3314   14.6275 C.ar    1  UNL1       -0.0209
     10 C          65.8414   92.3248   15.6961 C.ar    1  UNL1       -0.0042
     11 C          66.8316   93.3806   16.0897 C.ar    1  UNL1       -0.0003
     12 C          68.1695   93.4430   15.4145 C.ar    1  UNL1       -0.0000
     13 C          68.5173   92.4496   14.3458 C.ar    1  UNL1       -0.0003
     14 C          67.5272   91.3938   13.9523 C.ar    1  UNL1       -0.0042
     15 C          61.0587   88.7978   11.4638 C.3     1  UNL1        0.1780
     16 N          61.2212   88.0636   10.1659 N.pl3   1  UNL1       -0.2868
     17 C          61.9432   86.7492   10.1330 C.ar    1  UNL1        0.0498
     18 C          62.5901   86.2805    8.8634 C.ar    1  UNL1        0.0155
     19 C          63.3121   84.9661    8.8305 C.ar    1  UNL1        0.0135
     20 C          63.3873   84.1205   10.0671 C.ar    1  UNL1        0.0683
     21 CL         64.1094   82.8061   10.0342 Cl      1  UNL1       -0.0814
     22 C          62.7404   84.5893   11.3367 C.ar    1  UNL1        0.0694
     23 CL         62.8156   83.7436   12.5733 Cl      1  UNL1       -0.0813
     24 C          62.0184   85.9036   11.3696 C.ar    1  UNL1        0.0268
     25 C          60.6616   88.6438    8.9009 C.3     1  UNL1        0.1986
     26 N          58.5137   87.1813    7.4017 N.1     1  UNL1       -0.1941
     27 C          59.5876   87.9126    8.1513 C.1     1  UNL1        0.0954
     28 C          64.0292   91.9652   12.6444 C.3     1  UNL1        0.0926
     29 N          65.1965   92.5341   11.8935 N.3     1  UNL1       -0.2670
     30 C          65.8517   91.7335   10.8074 C.3     1  UNL1        0.1047
     31 C          67.0190   92.3023   10.0565 C.3     1  UNL1        0.1595
     32 O          67.5311   93.6718   10.3918 O.3     1  UNL1       -0.3508
     33 C          66.8758   94.4724   11.4780 C.3     1  UNL1        0.1595
     34 C          65.7085   93.9035   12.2288 C.3     1  UNL1        0.1047
@<TRIPOS>BOND
     1    26    27    3
     2    27    25    1
     3    25    16    1
     4    16    15    1
     5    15     1    1
     6     1     2    2
     7     1     3   am
     8     3     4    1
     9     4     5    1
    10     5     6    1
    11     6     7    1
    12     7     9    1
    13     9    10   ar
    14    10    11   ar
    15    11    12   ar
    16    12    13   ar
    17    13    14   ar
    18     7     8    1
    19     8    28    1
    20    28    29    1
    21    29    30    1
    22    30    31    1
    23    31    32    1
    24    32    33    1
    25    33    34    1
    26    16    17    1
    27    17    18   ar
    28    18    19   ar
    29    19    20   ar
    30    20    21    1
    31    20    22   ar
    32    22    23    1
    33    22    24   ar
    34     8     3    1
    35    34    29    1
    36    24    17   ar
    37    14     9   ar
@<TRIPOS>MOLECULE
*****
 34 37 0 0 0
SMALL
GASTEIGER

@<TRIPOS>ATOM
      1 C          63.0073   90.8168   10.6720 C.2     1  UNL1        0.2459
      2 O          63.3151   92.1673   10.0964 O.2     1  UNL1       -0.2730
      3 N          63.6939   90.3616   11.9257 N.am    1  UNL1       -0.2781
      4 C          63.3861   89.0111   12.5013 C.3     1  UNL1        0.0935
      5 C          64.0726   88.5560   13.7549 C.3     1  UNL1        0.0219
      6 C          65.0670   89.4514   14.4328 C.3     1  UNL1        0.0078
      7 C          65.3748   90.8018   13.8572 C.3     1  UNL1        0.0419
      8 C          64.6883   91.2570   12.6036 C.3     1  UNL1        0.0953
      9 C          66.3692   91.6972   14.5351 C.ar    1  UNL1       -0.0209
     10 C          67.7846   91.7552   14.0419 C.ar    1  UNL1       -0.0042
     11 C          68.7789   92.6505   14.7198 C.ar    1  UNL1       -0.0003
     12 C          68.3579   93.4879   15.8909 C.ar    1  UNL1       -0.0000
     13 C          66.9425   93.4299   16.3841 C.ar    1  UNL1       -0.0003
     14 C          65.9482   92.5346   15.7062 C.ar    1  UNL1       -0.0042
     15 C          62.0129   89.9215    9.9941 C.3     1  UNL1        0.1780
     16 N          61.4062   88.7719   10.7428 N.pl3   1  UNL1       -0.2868
     17 C          61.9226   87.3802   10.5270 C.ar    1  UNL1        0.0498
     18 C          62.1423   86.4715   11.7000 C.ar    1  UNL1        0.0155
     19 C          62.6586   85.0798   11.4842 C.ar    1  UNL1        0.0135
     20 C          62.9552   84.5968   10.0955 C.ar    1  UNL1        0.0683
     21 CL         63.4715   83.2050    9.8797 Cl      1  UNL1       -0.0814
     22 C          62.7354   85.5055    8.9224 C.ar    1  UNL1        0.0694
     23 CL         63.0320   85.0224    7.5336 Cl      1  UNL1       -0.0813
     24 C          62.2191   86.8972    9.1382 C.ar    1  UNL1        0.0268
     25 C          60.2832   89.0141   11.7072 C.3     1  UNL1        0.1986
     26 N          58.6546   91.5261   11.5130 N.1     1  UNL1       -0.1941
     27 C          59.4689   90.2701   11.6101 C.1     1  UNL1        0.0954
     28 C          64.9961   92.6075   12.0279 C.3     1  UNL1        0.0926
     29 N          66.1133   92.7645   11.0393 N.3     1  UNL1       -0.2670
     30 C          67.1234   91.6688   10.8689 C.3     1  UNL1        0.1047
     31 C          68.2406   91.8258    9.8804 C.3     1  UNL1        0.1595
     32 O          68.3477   93.0784    9.0623 O.3     1  UNL1       -0.3508
     33 C          67.3376   94.1742    9.2327 C.3     1  UNL1        0.1595
     34 C          66.2204   94.0172   10.2212 C.3     1  UNL1        0.1047
@<TRIPOS>BOND
     1    26    27    3
     2    27    25    1
     3    25    16    1
     4    16    15    1
     5    15     1    1
     6     1     2    2
     7     1     3   am
     8     3     4    1
     9     4     5    1
    10     5     6    1
    11     6     7    1
    12     7     9    1
    13     9    10   ar
    14    10    11   ar
    15    11    12   ar
    16    12    13   ar
    17    13    14   ar
    18     7     8    1
    19     8    28    1
    20    28    29    1
    21    29    30    1
    22    30    31    1
    23    31    32    1
    24    32    33    1
    25    33    34    1
    26    16    17    1
    27    17    18   ar
    28    18    19   ar
    29    19    20   ar
    30    20    21    1
    31    20    22   ar
    32    22    23    1
    33    22    24   ar
    34     8     3    1
    35    34    29    1
    36    24    17   ar
    37    14     9   ar
@<TRIPOS>MOLECULE
*****
 34 37 0 0 0
SMALL
GASTEIGER

@<TRIPOS>ATOM
      1 C          62.9055   87.9359   12.5224 C.2     1  UNL1        0.2459
      2 O          61.7853   87.6962   11.5540 O.2     1  UNL1       -0.2730
      3 N          63.5078   86.7849   13.2724 N.am    1  UNL1       -0.2781
      4 C          64.6279   87.0247   14.2408 C.3     1  UNL1        0.0935
      5 C          65.2302   85.8737   14.9907 C.3     1  UNL1        0.0219
      6 C          64.7123   84.4830   14.7723 C.3     1  UNL1        0.0078
      7 C          63.5922   84.2432   13.8040 C.3     1  UNL1        0.0419
      8 C          62.9899   85.3942   13.0540 C.3     1  UNL1        0.0953
      9 C          63.0743   82.8525   13.5855 C.ar    1  UNL1       -0.0209
     10 C          61.9594   82.3247   14.4390 C.ar    1  UNL1       -0.0042
     11 C          61.4416   80.9340   14.2206 C.ar    1  UNL1       -0.0003
     12 C          62.0386   80.0711   13.1487 C.ar    1  UNL1       -0.0000
     13 C          63.1534   80.5989   12.2953 C.ar    1  UNL1       -0.0003
     14 C          63.6713   81.9896   12.5137 C.ar    1  UNL1       -0.0042
     15 C          63.4233   89.3267   12.7408 C.3     1  UNL1        0.1780
     16 N          63.2569   90.3655   11.6717 N.pl3   1  UNL1       -0.2868
     17 C          64.1677   91.5568   11.6351 C.ar    1  UNL1        0.0498
     18 C          64.3440   92.3272   10.3602 C.ar    1  UNL1        0.0155
     19 C          65.2548   93.5184   10.3236 C.ar    1  UNL1        0.0135
     20 C          65.9893   93.9392   11.5619 C.ar    1  UNL1        0.0683
     21 CL         66.9001   95.1305   11.5253 Cl      1  UNL1       -0.0814
     22 C          65.8130   93.1688   12.8368 C.ar    1  UNL1        0.0694
     23 CL         66.5476   93.5897   14.0751 Cl      1  UNL1       -0.0813
     24 C          64.9022   91.9776   12.8734 C.ar    1  UNL1        0.0268
     25 C          62.1796   90.2131   10.6391 C.3     1  UNL1        0.1986
     26 N          59.3470   90.9405   11.3080 N.1     1  UNL1       -0.1941
     27 C          60.7632   90.5769   10.9736 C.1     1  UNL1        0.0954
     28 C          61.8697   85.1545   12.0856 C.3     1  UNL1        0.0926
     29 N          62.1431   85.1422   10.6107 N.3     1  UNL1       -0.2670
     30 C          63.3501   84.4289   10.0776 C.3     1  UNL1        0.1047
     31 C          63.6234   84.4166    8.6028 C.3     1  UNL1        0.1595
     32 O          62.6898   85.1176    7.6611 O.3     1  UNL1       -0.3508
     33 C          61.4828   85.8310    8.1942 C.3     1  UNL1        0.1595
     34 C          61.2094   85.8433    9.6690 C.3     1  UNL1        0.1047
@<TRIPOS>BOND
     1    26    27    3
     2    27    25    1
     3    25    16    1
     4    16    15    1
     5    15     1    1
     6     1     2    2
     7     1     3   am
     8     3     4    1
     9     4     5    1
    10     5     6    1
    11     6     7    1
    12     7     9    1
    13     9    10   ar
    14    10    11   ar
    15    11    12   ar
    16    12    13   ar
    17    13    14   ar
    18     7     8    1
    19     8    28    1
    20    28    29    1
    21    29    30    1
    22    30    31    1
    23    31    32    1
    24    32    33    1
    25    33    34    1
    26    16    17    1
    27    17    18   ar
    28    18    19   ar
    29    19    20   ar
    30    20    21    1
    31    20    22   ar
    32    22    23    1
    33    22    24   ar
    34     8     3    1
    35    34    29    1
    36    24    17   ar
    37    14     9   ar
