@<TRIPOS>MOLECULE
*****
 40 45 0 0 0
SMALL
GASTEIGER

@<TRIPOS>ATOM
      1 C          59.7422   88.9253    8.9513 C.ar    1  UNL1        0.2400
      2 N          58.8097   88.6449    7.8104 N.ar    1  UNL1       -0.2090
      3 C          58.9717   89.3778    6.5118 C.ar    1  UNL1        0.1021
      4 C          59.9605   90.4534    6.0193 C.ar    1  UNL1        0.0207
      5 C          60.2086   90.0201    7.4339 C.ar    1  UNL1        0.0221
      6 C          60.8368   89.9388    8.7935 C.ar    1  UNL1        0.1178
      7 N          61.7694   90.2193    9.9344 N.pl3   1  UNL1       -0.2104
      8 S          62.8938   90.8277   10.7189 S.O2    1  UNL1        0.0737
      9 O          63.4016   90.6259   12.1158 O.2     1  UNL1       -0.1499
     10 O          62.1154   89.8048   11.4920 O.2     1  UNL1       -0.1499
     11 C          64.0745   91.6907   11.0524 C.ar    1  UNL1        0.1253
     12 C          64.7027   91.6094   12.4121 C.ar    1  UNL1        0.0202
     13 C          65.8834   92.4724   12.7455 C.ar    1  UNL1        0.0015
     14 C          66.4359   93.4167   11.7193 C.ar    1  UNL1        0.0046
     15 C          65.8077   93.4980   10.3597 C.ar    1  UNL1        0.0547
     16 C          64.6270   92.6350   10.0262 C.ar    1  UNL1        0.0247
     17 C          66.5979   94.6901    9.2385 C.2     1  UNL1        0.2461
     18 O          67.7224   95.2986   10.0230 O.2     1  UNL1       -0.2701
     19 N          66.7598   95.4231    7.9398 N.am    1  UNL1       -0.2969
     20 C          66.5118   95.8564    6.5254 C.3     1  UNL1        0.1181
     21 C          65.8836   95.9376    5.1656 C.ar    1  UNL1        0.0166
     22 C          66.1880   96.7747    3.9072 C.ar    1  UNL1        0.0962
     23 N          65.5597   96.8560    2.5475 N.ar    1  UNL1       -0.2426
     24 C          64.3791   95.9930    2.2140 C.ar    1  UNL1        0.0988
     25 C          63.8266   95.0487    3.2403 C.ar    1  UNL1        0.0190
     26 C          64.9510   95.6572    4.0247 C.ar    1  UNL1        0.0005
     27 C          62.6459   94.1858    2.9068 C.ar    1  UNL1        0.0045
     28 C          62.8079   94.9188    1.6080 C.ar    1  UNL1        0.0207
     29 C          61.8753   94.6382    0.4672 C.ar    1  UNL1        0.0988
     30 N          60.7807   93.6248    0.6249 N.ar    1  UNL1       -0.2438
     31 C          60.6188   92.8918    1.9236 C.ar    1  UNL1        0.0813
     32 C          59.4550   91.7325    2.2700 C.ar    1  UNL1        0.0191
     33 C          59.2303   90.9605    3.5363 C.ar    1  UNL1        0.0016
     34 C          60.1225   91.1863    4.7207 C.ar    1  UNL1        0.0016
     35 C          60.6750   92.1306    3.6945 C.ar    1  UNL1        0.0015
     36 C          61.5513   93.1723    3.0646 C.ar    1  UNL1        0.0177
     37 H          61.4067   89.5995   10.6080 H       1  UNL1        0.1739
     38 H          67.5348   95.9895    8.1587 H       1  UNL1        0.1501
     39 C          60.5347   87.0945   10.6157 C.3     1  UNL1        0.2543
     40 O          59.5803   88.1924   10.2499 O.3     1  UNL1       -0.4553
@<TRIPOS>BOND
     1    39    40    1
     2    40     1    1
     3     1     2   ar
     4     2     3   ar
     5     3     4   ar
     6     4     5   ar
     7     5     6   ar
     8     6     7    1
     9     7     8    1
    10     8     9    2
    11     8    10    2
    12     8    11    1
    13    11    12   ar
    14    12    13   ar
    15    13    14   ar
    16    14    15   ar
    17    15    16   ar
    18    15    17    1
    19    17    18    2
    20    17    19   am
    21    19    20    1
    22    20    21    1
    23    21    22   ar
    24    22    23   ar
    25    23    24   ar
    26    24    25   ar
    27    25    26   ar
    28    25    27    1
    29    27    28   ar
    30    28    29   ar
    31    29    30   ar
    32    30    31   ar
    33    31    32   ar
    34    32    33   ar
    35    33    34   ar
    36    34    35   ar
    37    35    36   ar
    38     6     1   ar
    39    16    11   ar
    40    26    21   ar
    41    36    27   ar
    42    34     4    1
    43    36    31   ar
    44     7    37    1
    45    19    38    1
@<TRIPOS>MOLECULE
*****
 40 45 0 0 0
SMALL
GASTEIGER

@<TRIPOS>ATOM
      1 C          58.6674   89.7137    6.3303 C.ar    1  UNL1        0.2400
      2 N          58.6624   89.0203    7.6604 N.ar    1  UNL1       -0.2090
      3 C          59.7110   89.3489    8.6815 C.ar    1  UNL1        0.1021
      4 C          60.9077   90.3209    8.6950 C.ar    1  UNL1        0.0207
      5 C          60.1314   90.3508    7.4118 C.ar    1  UNL1        0.0221
      6 C          59.7210   90.7357    6.0213 C.ar    1  UNL1        0.1178
      7 N          59.7260   91.4291    4.6912 N.pl3   1  UNL1       -0.2104
      8 S          60.1459   92.3474    3.5820 S.O2    1  UNL1        0.0737
      9 O          59.6057   92.6171    2.2088 O.2     1  UNL1       -0.1499
     10 O          58.9340   91.5286    3.2489 O.2     1  UNL1       -0.1499
     11 C          60.9299   93.3799    2.8272 C.ar    1  UNL1        0.1253
     12 C          60.5195   93.7647    1.4368 C.ar    1  UNL1        0.0202
     13 C          61.3035   94.7971    0.6822 C.ar    1  UNL1        0.0015
     14 C          62.4978   95.4446    1.3180 C.ar    1  UNL1        0.0046
     15 C          62.9082   95.0597    2.7084 C.ar    1  UNL1        0.0547
     16 C          62.1242   94.0274    3.4631 C.ar    1  UNL1        0.0247
     17 C          64.3739   95.9377    3.3279 C.2     1  UNL1        0.2461
     18 O          64.7937   96.8560    2.2187 O.2     1  UNL1       -0.2701
     19 N          65.4224   96.2662    4.3490 N.am    1  UNL1       -0.2969
     20 C          66.1987   96.2363    5.6321 C.3     1  UNL1        0.1181
     21 C          66.6091   95.8514    7.0227 C.ar    1  UNL1        0.0166
     22 C          67.7522   96.3045    7.9527 C.ar    1  UNL1        0.0962
     23 N          68.1625   95.9196    9.3432 N.ar    1  UNL1       -0.2426
     24 C          67.3786   94.8872   10.0978 C.ar    1  UNL1        0.0988
     25 C          66.1842   94.2397    9.4620 C.ar    1  UNL1        0.0190
     26 C          66.6041   95.1580    8.3528 C.ar    1  UNL1        0.0005
     27 C          65.4003   93.2073   10.2167 C.ar    1  UNL1        0.0045
     28 C          66.4488   93.5359   11.2378 C.ar    1  UNL1        0.0207
     29 C          66.4438   92.8424   12.5679 C.ar    1  UNL1        0.0988
     30 N          65.3902   91.8205   12.8769 N.ar    1  UNL1       -0.2438
     31 C          64.3417   91.4919   11.8558 C.ar    1  UNL1        0.0813
     32 C          63.0964   90.3803   12.0350 C.ar    1  UNL1        0.0191
     33 C          62.0165   89.9990   11.0663 C.ar    1  UNL1        0.0016
     34 C          61.9562   90.6495    9.7160 C.ar    1  UNL1        0.0016
     35 C          63.1506   91.2970   10.3518 C.ar    1  UNL1        0.0015
     36 C          64.3467   92.1853   10.5257 C.ar    1  UNL1        0.0177
     37 H          58.9422   91.0041    4.2739 H       1  UNL1        0.1739
     38 H          65.9369   96.9438    3.8537 H       1  UNL1        0.1501
     39 C          56.3962   90.2452    5.1863 C.3     1  UNL1        0.2543
     40 O          57.6189   89.3851    5.3093 O.3     1  UNL1       -0.4553
@<TRIPOS>BOND
     1    39    40    1
     2    40     1    1
     3     1     2   ar
     4     2     3   ar
     5     3     4   ar
     6     4     5   ar
     7     5     6   ar
     8     6     7    1
     9     7     8    1
    10     8     9    2
    11     8    10    2
    12     8    11    1
    13    11    12   ar
    14    12    13   ar
    15    13    14   ar
    16    14    15   ar
    17    15    16   ar
    18    15    17    1
    19    17    18    2
    20    17    19   am
    21    19    20    1
    22    20    21    1
    23    21    22   ar
    24    22    23   ar
    25    23    24   ar
    26    24    25   ar
    27    25    26   ar
    28    25    27    1
    29    27    28   ar
    30    28    29   ar
    31    29    30   ar
    32    30    31   ar
    33    31    32   ar
    34    32    33   ar
    35    33    34   ar
    36    34    35   ar
    37    35    36   ar
    38     6     1   ar
    39    16    11   ar
    40    26    21   ar
    41    36    27   ar
    42    34     4    1
    43    36    31   ar
    44     7    37    1
    45    19    38    1
