@<TRIPOS>MOLECULE
*****
 39 43 0 0 0
SMALL
GASTEIGER

@<TRIPOS>ATOM
      1 C          62.3691   93.8070   -5.3545 C.ar    1  UNL1        0.1348
      2 C          61.4142   94.8786   -5.7904 C.ar    1  UNL1        0.0346
      3 C          60.4621   95.4825   -4.8010 C.ar    1  UNL1        0.0065
      4 C          60.4649   95.0150   -3.3758 C.ar    1  UNL1        0.0432
      5 C          61.4198   93.9434   -2.9399 C.ar    1  UNL1        0.1256
      6 N          62.3719   93.3395   -3.9292 N.ar    1  UNL1       -0.2222
      7 C          59.5128   95.6190   -2.3865 C.ar    1  UNL1        0.0850
      8 C          59.8880   96.2918   -1.0994 C.ar    1  UNL1        0.0991
      9 N          58.6255   96.7448   -0.4280 N.ar    1  UNL1       -0.2265
     10 C          57.4700   96.3519   -1.3001 C.ar    1  UNL1        0.1474
     11 C          55.9893   96.5379   -1.1484 C.ar    1  UNL1        0.0332
     12 C          55.0571   96.0280   -2.2071 C.ar    1  UNL1       -0.0174
     13 C          53.5763   96.2139   -2.0554 C.3     1  UNL1        0.0312
     14 C          55.6054   95.3322   -3.4176 C.ar    1  UNL1        0.0149
     15 C          57.0861   95.1462   -3.5692 C.ar    1  UNL1        0.0811
     16 N          58.0184   95.6561   -2.5105 N.ar    1  UNL1       -0.2888
     17 C          61.2811   96.4788   -0.5758 C.ar    1  UNL1        0.0222
     18 C          61.5333   96.4761    0.9029 C.ar    1  UNL1        0.0222
     19 C          62.9264   96.6631    1.4264 C.ar    1  UNL1        0.0989
     20 N          64.0674   96.8529    0.4714 N.ar    1  UNL1       -0.2423
     21 C          63.8152   96.8556   -1.0072 C.ar    1  UNL1        0.0989
     22 C          62.4221   96.6686   -1.5308 C.ar    1  UNL1        0.0222
     23 C          64.7764   93.0759   -6.0029 C.2     1  UNL1        0.2414
     24 O          65.2795   93.5527   -4.6727 O.2     1  UNL1       -0.2733
     25 N          63.3212   93.2031   -6.3438 N.am    1  UNL1       -0.2682
     26 H          62.9909   92.8901   -7.2169 H       1  UNL1        0.1563
     27 C          65.7284   92.4719   -6.9923 C.3     1  UNL1        0.1319
     28 C          65.5156   91.0686   -7.4773 C.3     1  UNL1        0.0270
     29 C          66.8482   94.7701   -7.4552 C.3     1  UNL1        0.0862
     30 N          66.8931   93.2713   -7.4967 N.3     1  UNL1       -0.2902
     31 H          67.7052   92.9858   -6.9495 H       1  UNL1        0.1237
     32 C          61.4226   93.4759   -1.5146 C.1     1  UNL1       -0.0404
     33 C          61.4253   93.0082   -0.0893 C.1     1  UNL1       -0.0583
     34 C          61.4281   92.5406    1.3359 C.ar    1  UNL1        0.0420
     35 C          62.6168   91.8067    1.8821 C.ar    1  UNL1        0.0082
     36 C          62.6196   91.3391    3.3074 C.ar    1  UNL1        0.0006
     37 C          61.4336   91.6055    4.1864 C.ar    1  UNL1        0.0000
     38 C          60.2449   92.3394    3.6402 C.ar    1  UNL1        0.0006
     39 C          60.2421   92.8070    2.2149 C.ar    1  UNL1        0.0082
@<TRIPOS>BOND
     1    29    30    1
     2    30    27    1
     3    27    28    1
     4    27    23    1
     5    23    24    2
     6    23    25   am
     7    25     1    1
     8     1     2   ar
     9     2     3   ar
    10     3     4   ar
    11     4     7    1
    12     7     8   ar
    13     8    17    1
    14    17    18   ar
    15    18    19   ar
    16    19    20   ar
    17    20    21   ar
    18    21    22   ar
    19     8     9   ar
    20     9    10   ar
    21    10    11   ar
    22    11    12   ar
    23    12    13    1
    24    12    14   ar
    25    14    15   ar
    26    15    16   ar
    27     4     5   ar
    28     5    32    1
    29    32    33    3
    30    33    34    1
    31    34    35   ar
    32    35    36   ar
    33    36    37   ar
    34    37    38   ar
    35    38    39   ar
    36     5     6   ar
    37     6     1   ar
    38    16     7   ar
    39    39    34   ar
    40    22    17   ar
    41    16    10   ar
    42    30    31    1
    43    25    26    1
