@<TRIPOS>MOLECULE
*****
 25 27 0 0 0
SMALL
GASTEIGER

@<TRIPOS>ATOM
      1 C          61.4243   87.1123   10.6478 C.3     1  UNL1        0.1612
      2 C          61.5525   86.3705    9.3503 C.ar    1  UNL1        0.0171
      3 C          62.8493   85.7083    8.9900 C.ar    1  UNL1       -0.0002
      4 C          62.9776   84.9666    7.6926 C.ar    1  UNL1        0.0112
      5 C          61.8090   84.8869    6.7555 C.ar    1  UNL1        0.0585
      6 CL         61.9372   84.1452    5.4581 Cl      1  UNL1       -0.0822
      7 C          60.5122   85.5491    7.1158 C.ar    1  UNL1        0.0225
      8 C          60.3840   86.2909    8.4133 C.ar    1  UNL1        0.0568
      9 CL         59.0872   86.9531    8.7737 Cl      1  UNL1       -0.0825
     10 O          61.5170   86.3704   11.9482 O.3     1  UNL1       -0.3450
     11 C          62.7655   85.6140   12.2929 C.3     1  UNL1        0.1698
     12 CL         62.5030   79.7141   13.3522 Cl      1  UNL1       -0.0822
     13 C          62.5686   81.1890   13.0874 C.ar    1  UNL1        0.0585
     14 C          62.8188   81.6908   11.6961 C.ar    1  UNL1        0.0112
     15 C          62.8844   83.1658   11.4313 C.ar    1  UNL1       -0.0001
     16 C          62.6999   84.1390   12.5577 C.ar    1  UNL1        0.0179
     17 C          62.4497   83.6372   13.9489 C.ar    1  UNL1        0.0569
     18 CL         62.2651   84.6104   15.0754 Cl      1  UNL1       -0.0825
     19 C          62.3841   82.1622   14.2138 C.ar    1  UNL1        0.0225
     20 C          61.2035   88.5959   10.6449 C.3     1  UNL1        0.1416
     21 N          62.2671   89.5135   11.1712 N.ar    1  UNL1       -0.3050
     22 C          62.9144   89.4300   12.5217 C.ar    1  UNL1        0.0981
     23 C          63.9174   90.5406   12.6246 C.ar    1  UNL1        0.1193
     24 N          63.8899   91.3106   11.3376 N.ar    1  UNL1       -0.2223
     25 C          62.8700   90.6758   10.4393 C.ar    1  UNL1        0.1787
@<TRIPOS>BOND
     1    12    13    1
     2    13    14   ar
     3    14    15   ar
     4    15    16   ar
     5    16    11    1
     6    11    10    1
     7    10     1    1
     8     1    20    1
     9    20    21    1
    10    21    22   ar
    11    22    23   ar
    12    23    24   ar
    13    24    25   ar
    14     1     2    1
    15     2     3   ar
    16     3     4   ar
    17     4     5   ar
    18     5     6    1
    19     5     7   ar
    20     7     8   ar
    21     8     9    1
    22    16    17   ar
    23    17    18    1
    24    17    19   ar
    25    19    13   ar
    26    25    21   ar
    27     8     2   ar
@<TRIPOS>MOLECULE
*****
 25 27 0 0 0
SMALL
GASTEIGER

@<TRIPOS>ATOM
      1 C          62.0284   86.8979   10.4571 C.3     1  UNL1        0.1612
      2 C          61.9196   86.1826    9.1431 C.ar    1  UNL1        0.0171
      3 C          63.0814   85.3894    8.6225 C.ar    1  UNL1       -0.0002
      4 C          62.9726   84.6742    7.3086 C.ar    1  UNL1        0.0112
      5 C          61.7020   84.7521    6.5151 C.ar    1  UNL1        0.0585
      6 CL         61.5932   84.0368    5.2012 Cl      1  UNL1       -0.0822
      7 C          60.5402   85.5453    7.0357 C.ar    1  UNL1        0.0225
      8 C          60.6490   86.2606    8.3498 C.ar    1  UNL1        0.0568
      9 CL         59.4872   87.0538    8.8704 Cl      1  UNL1       -0.0825
     10 O          62.4528   88.3361   10.4952 O.3     1  UNL1       -0.3450
     11 C          62.1668   89.1706   11.7084 C.3     1  UNL1        0.1698
     12 CL         66.5817   92.2877   14.3146 Cl      1  UNL1       -0.0822
     13 C          65.4780   91.5084   13.6630 C.ar    1  UNL1        0.0585
     14 C          64.9012   90.3067   14.3508 C.ar    1  UNL1        0.0112
     15 C          63.7975   89.5274   13.6992 C.ar    1  UNL1       -0.0001
     16 C          63.2705   89.9499   12.3599 C.ar    1  UNL1        0.0179
     17 C          63.8472   91.1517   11.6722 C.ar    1  UNL1        0.0569
     18 CL         63.3202   91.5743   10.3329 Cl      1  UNL1       -0.0825
     19 C          64.9510   91.9310   12.3237 C.ar    1  UNL1        0.0225
     20 C          61.7129   86.1750   11.7330 C.3     1  UNL1        0.1416
     21 N          62.6783   85.1670   12.2823 N.ar    1  UNL1       -0.3050
     22 C          62.8429   83.7537   11.8074 C.ar    1  UNL1        0.0981
     23 C          63.9149   83.1085   12.6346 C.ar    1  UNL1        0.1193
     24 N          64.4130   84.1230   13.6209 N.ar    1  UNL1       -0.2223
     25 C          63.6487   85.3952   13.4032 C.ar    1  UNL1        0.1787
@<TRIPOS>BOND
     1    12    13    1
     2    13    14   ar
     3    14    15   ar
     4    15    16   ar
     5    16    11    1
     6    11    10    1
     7    10     1    1
     8     1    20    1
     9    20    21    1
    10    21    22   ar
    11    22    23   ar
    12    23    24   ar
    13    24    25   ar
    14     1     2    1
    15     2     3   ar
    16     3     4   ar
    17     4     5   ar
    18     5     6    1
    19     5     7   ar
    20     7     8   ar
    21     8     9    1
    22    16    17   ar
    23    17    18    1
    24    17    19   ar
    25    19    13   ar
    26    25    21   ar
    27     8     2   ar
@<TRIPOS>MOLECULE
*****
 25 27 0 0 0
SMALL
GASTEIGER

@<TRIPOS>ATOM
      1 C          61.9165   87.2845   11.0132 C.3     1  UNL1        0.1612
      2 C          62.4607   85.8912   11.1262 C.ar    1  UNL1        0.0171
      3 C          62.5672   85.2345   12.4706 C.ar    1  UNL1       -0.0002
      4 C          63.1114   83.8413   12.5837 C.ar    1  UNL1        0.0112
      5 C          63.5491   83.1048   11.3523 C.ar    1  UNL1        0.0585
      6 CL         64.0932   81.7116   11.4654 Cl      1  UNL1       -0.0822
      7 C          63.4425   83.7615   10.0080 C.ar    1  UNL1        0.0225
      8 C          62.8983   85.1548    9.8949 C.ar    1  UNL1        0.0568
      9 CL         62.7917   85.8116    8.5506 Cl      1  UNL1       -0.0825
     10 O          62.8359   88.4620   11.1477 O.3     1  UNL1       -0.3450
     11 C          62.5951   89.4830   12.2198 C.3     1  UNL1        0.1698
     12 CL         67.0520   93.0940   13.9796 Cl      1  UNL1       -0.0822
     13 C          65.9378   92.1912   13.5397 C.ar    1  UNL1        0.0585
     14 C          65.4541   91.0996   14.4475 C.ar    1  UNL1        0.0112
     15 C          64.3399   90.1968   14.0076 C.ar    1  UNL1       -0.0001
     16 C          63.7093   90.3857   12.6598 C.ar    1  UNL1        0.0179
     17 C          64.1930   91.4774   11.7519 C.ar    1  UNL1        0.0569
     18 CL         63.5624   91.6664   10.4040 Cl      1  UNL1       -0.0825
     19 C          65.3072   92.3801   12.1918 C.ar    1  UNL1        0.0225
     20 C          60.4529   87.5002   10.7656 C.3     1  UNL1        0.1416
     21 N          59.9644   87.8140    9.3826 N.ar    1  UNL1       -0.3050
     22 C          60.1026   89.1299    8.6760 C.ar    1  UNL1        0.0981
     23 C          59.4756   88.9961    7.3200 C.ar    1  UNL1        0.1193
     24 N          58.9498   87.5975    7.1884 N.ar    1  UNL1       -0.2223
     25 C          59.2520   86.8669    8.4631 C.ar    1  UNL1        0.1787
@<TRIPOS>BOND
     1    12    13    1
     2    13    14   ar
     3    14    15   ar
     4    15    16   ar
     5    16    11    1
     6    11    10    1
     7    10     1    1
     8     1    20    1
     9    20    21    1
    10    21    22   ar
    11    22    23   ar
    12    23    24   ar
    13    24    25   ar
    14     1     2    1
    15     2     3   ar
    16     3     4   ar
    17     4     5   ar
    18     5     6    1
    19     5     7   ar
    20     7     8   ar
    21     8     9    1
    22    16    17   ar
    23    17    18    1
    24    17    19   ar
    25    19    13   ar
    26    25    21   ar
    27     8     2   ar
@<TRIPOS>MOLECULE
*****
 25 27 0 0 0
SMALL
GASTEIGER

@<TRIPOS>ATOM
      1 C          62.6316   86.1424   11.6584 C.3     1  UNL1        0.1612
      2 C          61.7006   86.5412   10.5519 C.ar    1  UNL1        0.0171
      3 C          60.5274   87.4296   10.8425 C.ar    1  UNL1       -0.0002
      4 C          59.5964   87.8284    9.7361 C.ar    1  UNL1        0.0112
      5 C          59.8385   87.3387    8.3390 C.ar    1  UNL1        0.0585
      6 CL         58.9075   87.7375    7.2326 Cl      1  UNL1       -0.0822
      7 C          61.0117   86.4504    8.0484 C.ar    1  UNL1        0.0225
      8 C          61.9427   86.0516    9.1549 C.ar    1  UNL1        0.0568
      9 CL         63.1159   85.1632    8.8643 Cl      1  UNL1       -0.0825
     10 O          63.3043   87.1952   12.4885 O.3     1  UNL1       -0.3450
     11 C          62.8307   88.6170   12.4243 C.3     1  UNL1        0.1698
     12 CL         66.4639   93.0701   14.1477 Cl      1  UNL1       -0.0822
     13 C          65.5556   91.9568   13.7169 C.ar    1  UNL1        0.0585
     14 C          65.3620   90.7616   14.6022 C.ar    1  UNL1        0.0112
     15 C          64.4537   89.6483   14.1714 C.ar    1  UNL1       -0.0001
     16 C          63.7390   89.7303   12.8552 C.ar    1  UNL1        0.0179
     17 C          63.9326   90.9255   11.9698 C.ar    1  UNL1        0.0569
     18 CL         63.2178   91.0076   10.6536 Cl      1  UNL1       -0.0825
     19 C          64.8409   92.0388   12.4007 C.ar    1  UNL1        0.0225
     20 C          62.8899   84.6909   11.9347 C.3     1  UNL1        0.1416
     21 N          63.1339   84.2269   13.3401 N.ar    1  UNL1       -0.3050
     22 C          62.1427   84.2635   14.4653 C.ar    1  UNL1        0.0981
     23 C          62.8082   83.7039   15.6877 C.ar    1  UNL1        0.1193
     24 N          64.2107   83.3215   15.3178 N.ar    1  UNL1       -0.2223
     25 C          64.4120   83.6447   13.8670 C.ar    1  UNL1        0.1787
@<TRIPOS>BOND
     1    12    13    1
     2    13    14   ar
     3    14    15   ar
     4    15    16   ar
     5    16    11    1
     6    11    10    1
     7    10     1    1
     8     1    20    1
     9    20    21    1
    10    21    22   ar
    11    22    23   ar
    12    23    24   ar
    13    24    25   ar
    14     1     2    1
    15     2     3   ar
    16     3     4   ar
    17     4     5   ar
    18     5     6    1
    19     5     7   ar
    20     7     8   ar
    21     8     9    1
    22    16    17   ar
    23    17    18    1
    24    17    19   ar
    25    19    13   ar
    26    25    21   ar
    27     8     2   ar
@<TRIPOS>MOLECULE
*****
 25 27 0 0 0
SMALL
GASTEIGER

@<TRIPOS>ATOM
      1 C          62.7916   84.9289   12.1337 C.3     1  UNL1        0.1612
      2 C          62.0930   85.7479   11.0890 C.ar    1  UNL1        0.0171
      3 C          61.0979   86.7934   11.4971 C.ar    1  UNL1       -0.0002
      4 C          60.3993   87.6124   10.4525 C.ar    1  UNL1        0.0112
      5 C          60.6959   87.3858    8.9996 C.ar    1  UNL1        0.0585
      6 CL         59.9974   88.2048    7.9550 Cl      1  UNL1       -0.0822
      7 C          61.6910   86.3403    8.5915 C.ar    1  UNL1        0.0225
      8 C          62.3896   85.5213    9.6362 C.ar    1  UNL1        0.0568
      9 CL         63.3847   84.4758    9.2280 Cl      1  UNL1       -0.0825
     10 O          62.8163   85.3949   13.5593 O.3     1  UNL1       -0.3450
     11 C          64.0385   86.0706   14.1064 C.3     1  UNL1        0.1698
     12 CL         63.5912   91.4950   16.6314 Cl      1  UNL1       -0.0822
     13 C          63.7030   90.1389   16.0001 C.ar    1  UNL1        0.0585
     14 C          64.1926   90.0068   14.5885 C.ar    1  UNL1        0.0112
     15 C          64.3045   88.6507   13.9572 C.ar    1  UNL1       -0.0001
     16 C          63.9267   87.4267   14.7377 C.ar    1  UNL1        0.0179
     17 C          63.4371   87.5588   16.1493 C.ar    1  UNL1        0.0569
     18 CL         63.0593   86.3348   16.9298 Cl      1  UNL1       -0.0825
     19 C          63.3253   88.9149   16.7805 C.ar    1  UNL1        0.0225
     20 C          63.4654   83.6441   11.7529 C.3     1  UNL1        0.1416
     21 N          63.1207   82.3743   12.4730 N.ar    1  UNL1       -0.3050
     22 C          62.8596   81.0419   11.8353 C.ar    1  UNL1        0.0981
     23 C          62.5541   80.0580   12.9255 C.ar    1  UNL1        0.1193
     24 N          62.6264   80.7823   14.2371 N.ar    1  UNL1       -0.2223
     25 C          62.9765   82.2137   13.9574 C.ar    1  UNL1        0.1787
@<TRIPOS>BOND
     1    12    13    1
     2    13    14   ar
     3    14    15   ar
     4    15    16   ar
     5    16    11    1
     6    11    10    1
     7    10     1    1
     8     1    20    1
     9    20    21    1
    10    21    22   ar
    11    22    23   ar
    12    23    24   ar
    13    24    25   ar
    14     1     2    1
    15     2     3   ar
    16     3     4   ar
    17     4     5   ar
    18     5     6    1
    19     5     7   ar
    20     7     8   ar
    21     8     9    1
    22    16    17   ar
    23    17    18    1
    24    17    19   ar
    25    19    13   ar
    26    25    21   ar
    27     8     2   ar
@<TRIPOS>MOLECULE
*****
 25 27 0 0 0
SMALL
GASTEIGER

@<TRIPOS>ATOM
      1 C          62.1395   87.4043   11.0882 C.3     1  UNL1        0.1612
      2 C          62.6326   86.0000   10.9015 C.ar    1  UNL1        0.0171
      3 C          62.6359   85.3818    9.5348 C.ar    1  UNL1       -0.0002
      4 C          63.1290   83.9775    9.3481 C.ar    1  UNL1        0.0112
      5 C          63.6188   83.1915   10.5280 C.ar    1  UNL1        0.0585
      6 CL         64.1119   81.7872   10.3413 Cl      1  UNL1       -0.0822
      7 C          63.6155   83.8097   11.8947 C.ar    1  UNL1        0.0225
      8 C          63.1224   85.2140   12.0814 C.ar    1  UNL1        0.0568
      9 CL         63.1191   85.8323   13.4480 Cl      1  UNL1       -0.0825
     10 O          63.1089   88.5033   11.4084 O.3     1  UNL1       -0.3450
     11 C          62.8055   89.4731   12.5117 C.3     1  UNL1        0.1698
     12 CL         66.9786   93.4034   14.2831 Cl      1  UNL1       -0.0822
     13 C          65.9353   92.4208   13.8403 C.ar    1  UNL1        0.0585
     14 C          65.3412   92.5256   12.4670 C.ar    1  UNL1        0.0112
     15 C          64.2980   91.5431   12.0241 C.ar    1  UNL1       -0.0001
     16 C          63.8488   90.4557   12.9546 C.ar    1  UNL1        0.0179
     17 C          64.4428   90.3509   14.3279 C.ar    1  UNL1        0.0569
     18 CL         63.9936   89.2635   15.2584 Cl      1  UNL1       -0.0825
     19 C          65.4861   91.3335   14.7707 C.ar    1  UNL1        0.0225
     20 C          60.6770   87.7097   10.9546 C.3     1  UNL1        0.1416
     21 N          60.0788   87.9356    9.5977 N.ar    1  UNL1       -0.3050
     22 C          59.4117   86.8980    8.7443 C.ar    1  UNL1        0.0981
     23 C          58.9633   87.5599    7.4751 C.ar    1  UNL1        0.1193
     24 N          59.3534   89.0067    7.5441 N.ar    1  UNL1       -0.2223
     25 C          60.0428   89.2388    8.8559 C.ar    1  UNL1        0.1787
@<TRIPOS>BOND
     1    12    13    1
     2    13    14   ar
     3    14    15   ar
     4    15    16   ar
     5    16    11    1
     6    11    10    1
     7    10     1    1
     8     1    20    1
     9    20    21    1
    10    21    22   ar
    11    22    23   ar
    12    23    24   ar
    13    24    25   ar
    14     1     2    1
    15     2     3   ar
    16     3     4   ar
    17     4     5   ar
    18     5     6    1
    19     5     7   ar
    20     7     8   ar
    21     8     9    1
    22    16    17   ar
    23    17    18    1
    24    17    19   ar
    25    19    13   ar
    26    25    21   ar
    27     8     2   ar
@<TRIPOS>MOLECULE
*****
 25 27 0 0 0
SMALL
GASTEIGER

@<TRIPOS>ATOM
      1 C          62.8033   88.2398   12.0285 C.3     1  UNL1        0.1612
      2 C          61.9312   87.7575   10.9073 C.ar    1  UNL1        0.0171
      3 C          62.4663   86.7710    9.9121 C.ar    1  UNL1       -0.0002
      4 C          61.5943   86.2887    8.7910 C.ar    1  UNL1        0.0112
      5 C          60.1872   86.7930    8.6650 C.ar    1  UNL1        0.0585
      6 CL         59.3152   86.3107    7.5438 Cl      1  UNL1       -0.0822
      7 C          59.6521   87.7795    9.6602 C.ar    1  UNL1        0.0225
      8 C          60.5242   88.2618   10.7814 C.ar    1  UNL1        0.0568
      9 CL         59.9891   89.2483   11.7766 Cl      1  UNL1       -0.0825
     10 O          63.1163   87.3304   13.1796 O.3     1  UNL1       -0.3450
     11 C          63.9474   86.1012   12.9598 C.3     1  UNL1        0.1698
     12 CL         61.5541   80.6675   13.8243 Cl      1  UNL1       -0.0822
     13 C          62.1524   82.0259   13.6082 C.ar    1  UNL1        0.0585
     14 C          62.4658   82.4949   12.2183 C.ar    1  UNL1        0.0112
     15 C          63.0641   83.8534   12.0022 C.ar    1  UNL1       -0.0001
     16 C          63.3491   84.7428   13.1759 C.ar    1  UNL1        0.0179
     17 C          63.0357   84.2737   14.5658 C.ar    1  UNL1        0.0569
     18 CL         63.3206   85.1631   15.7397 Cl      1  UNL1       -0.0825
     19 C          62.4373   82.9153   14.7819 C.ar    1  UNL1        0.0225
     20 C          63.3622   89.6314   11.9986 C.3     1  UNL1        0.1416
     21 N          63.8119   90.2865   13.2708 N.ar    1  UNL1       -0.3050
     22 C          63.2632   90.0206   14.6413 C.ar    1  UNL1        0.0981
     23 C          64.0014   90.8924   15.6134 C.ar    1  UNL1        0.1193
     24 N          65.0064   91.6971   14.8438 N.ar    1  UNL1       -0.2223
     25 C          64.8893   91.3226   13.3960 C.ar    1  UNL1        0.1787
@<TRIPOS>BOND
     1    12    13    1
     2    13    14   ar
     3    14    15   ar
     4    15    16   ar
     5    16    11    1
     6    11    10    1
     7    10     1    1
     8     1    20    1
     9    20    21    1
    10    21    22   ar
    11    22    23   ar
    12    23    24   ar
    13    24    25   ar
    14     1     2    1
    15     2     3   ar
    16     3     4   ar
    17     4     5   ar
    18     5     6    1
    19     5     7   ar
    20     7     8   ar
    21     8     9    1
    22    16    17   ar
    23    17    18    1
    24    17    19   ar
    25    19    13   ar
    26    25    21   ar
    27     8     2   ar
@<TRIPOS>MOLECULE
*****
 25 27 0 0 0
SMALL
GASTEIGER

@<TRIPOS>ATOM
      1 C          62.7597   87.6361   12.0437 C.3     1  UNL1        0.1612
      2 C          61.8525   87.3699   10.8792 C.ar    1  UNL1        0.0171
      3 C          62.2336   86.3475    9.8500 C.ar    1  UNL1       -0.0002
      4 C          61.3264   86.0812    8.6855 C.ar    1  UNL1        0.0112
      5 C          60.0380   86.8375    8.5502 C.ar    1  UNL1        0.0585
      6 CL         59.1308   86.5713    7.3857 Cl      1  UNL1       -0.0822
      7 C          59.6569   87.8600    9.5794 C.ar    1  UNL1        0.0225
      8 C          60.5642   88.1262   10.7439 C.ar    1  UNL1        0.0568
      9 CL         60.1831   89.1486   11.7732 Cl      1  UNL1       -0.0825
     10 O          62.9809   86.5745   13.0801 O.3     1  UNL1       -0.3450
     11 C          63.8479   85.3909   12.7682 C.3     1  UNL1        0.1698
     12 CL         61.7168   79.8318   13.5123 Cl      1  UNL1       -0.0822
     13 C          62.2496   81.2216   13.3262 C.ar    1  UNL1        0.0585
     14 C          62.1041   82.2337   14.4237 C.ar    1  UNL1        0.0112
     15 C          62.6369   83.6235   14.2376 C.ar    1  UNL1       -0.0001
     16 C          63.3151   84.0011   12.9542 C.ar    1  UNL1        0.0179
     17 C          63.4606   82.9890   11.8568 C.ar    1  UNL1        0.0569
     18 CL         64.1389   83.3667   10.5732 Cl      1  UNL1       -0.0825
     19 C          62.9278   81.5992   12.0428 C.ar    1  UNL1        0.0225
     20 C          63.4457   88.9639   12.1718 C.3     1  UNL1        0.1416
     21 N          63.5461   89.6300   13.5121 N.ar    1  UNL1       -0.3050
     22 C          63.5157   88.9405   14.8438 C.ar    1  UNL1        0.0981
     23 C          63.6453   89.9870   15.9107 C.ar    1  UNL1        0.1193
     24 N          63.7557   91.3233   15.2382 N.ar    1  UNL1       -0.2223
     25 C          63.6944   91.1026   13.7558 C.ar    1  UNL1        0.1787
@<TRIPOS>BOND
     1    12    13    1
     2    13    14   ar
     3    14    15   ar
     4    15    16   ar
     5    16    11    1
     6    11    10    1
     7    10     1    1
     8     1    20    1
     9    20    21    1
    10    21    22   ar
    11    22    23   ar
    12    23    24   ar
    13    24    25   ar
    14     1     2    1
    15     2     3   ar
    16     3     4   ar
    17     4     5   ar
    18     5     6    1
    19     5     7   ar
    20     7     8   ar
    21     8     9    1
    22    16    17   ar
    23    17    18    1
    24    17    19   ar
    25    19    13   ar
    26    25    21   ar
    27     8     2   ar
@<TRIPOS>MOLECULE
*****
 25 27 0 0 0
SMALL
GASTEIGER

@<TRIPOS>ATOM
      1 C          62.3719   87.6755   11.5190 C.3     1  UNL1        0.1612
      2 C          61.5140   88.0231   10.3387 C.ar    1  UNL1        0.0171
      3 C          60.8343   89.3587   10.2730 C.ar    1  UNL1       -0.0002
      4 C          59.9765   89.7064    9.0927 C.ar    1  UNL1        0.0112
      5 C          59.7983   88.7185    7.9780 C.ar    1  UNL1        0.0585
      6 CL         58.9404   89.0662    6.7977 Cl      1  UNL1       -0.0822
      7 C          60.4780   87.3830    8.0437 C.ar    1  UNL1        0.0225
      8 C          61.3359   87.0353    9.2241 C.ar    1  UNL1        0.0568
      9 CL         62.0155   85.6997    9.2898 Cl      1  UNL1       -0.0825
     10 O          62.0838   86.4386   12.3172 O.3     1  UNL1       -0.3450
     11 C          63.2028   85.5171   12.7027 C.3     1  UNL1        0.1698
     12 CL         62.1917   79.6265   13.2305 Cl      1  UNL1       -0.0822
     13 C          62.4444   81.0992   13.0986 C.ar    1  UNL1        0.0585
     14 C          62.8732   81.6713   11.7800 C.ar    1  UNL1        0.0112
     15 C          63.1260   83.1440   11.6480 C.ar    1  UNL1       -0.0001
     16 C          62.9500   84.0445   12.8347 C.ar    1  UNL1        0.0179
     17 C          62.5212   83.4723   14.1532 C.ar    1  UNL1        0.0569
     18 CL         62.3452   84.3728   15.3400 Cl      1  UNL1       -0.0825
     19 C          62.2685   81.9996   14.2852 C.ar    1  UNL1        0.0225
     20 C          63.5179   88.5646   11.9012 C.3     1  UNL1        0.1416
     21 N          63.5379   89.2253   13.2477 N.ar    1  UNL1       -0.3050
     22 C          63.9286   88.5764   14.5424 C.ar    1  UNL1        0.0981
     23 C          63.8030   89.6009   15.6309 C.ar    1  UNL1        0.1193
     24 N          63.3347   90.8830   15.0088 N.ar    1  UNL1       -0.2223
     25 C          63.1709   90.6508   13.5360 C.ar    1  UNL1        0.1787
@<TRIPOS>BOND
     1    12    13    1
     2    13    14   ar
     3    14    15   ar
     4    15    16   ar
     5    16    11    1
     6    11    10    1
     7    10     1    1
     8     1    20    1
     9    20    21    1
    10    21    22   ar
    11    22    23   ar
    12    23    24   ar
    13    24    25   ar
    14     1     2    1
    15     2     3   ar
    16     3     4   ar
    17     4     5   ar
    18     5     6    1
    19     5     7   ar
    20     7     8   ar
    21     8     9    1
    22    16    17   ar
    23    17    18    1
    24    17    19   ar
    25    19    13   ar
    26    25    21   ar
    27     8     2   ar
