@<TRIPOS>MOLECULE
*****
 27 30 0 0 0
SMALL
GASTEIGER

@<TRIPOS>ATOM
      1 C          62.8641   89.9124   10.9474 C.ar    1  UNL1        0.0611
      2 C          63.0314   89.7174   12.4251 C.ar    1  UNL1        0.0318
      3 C          63.9284   90.6320   13.2056 C.ar    1  UNL1        0.0527
      4 C          64.6580   91.7416   12.5081 C.ar    1  UNL1        0.0489
      5 C          65.6028   92.7929   13.0103 C.ar    1  UNL1        0.0249
      6 C          66.0193   93.6376   11.8428 C.ar    1  UNL1        0.1006
      7 N          65.3319   93.1084   10.6191 N.ar    1  UNL1       -0.2269
      8 C          64.4906   91.9366   11.0303 C.ar    1  UNL1        0.1417
      9 N          63.5936   91.0220   10.2499 N.ar    1  UNL1       -0.3384
     10 H          63.4837   91.1500    9.2800 H       1  UNL1        0.1674
     11 F          59.2761   86.2542    7.8258 F       1  UNL1       -0.2032
     12 C          60.1731   87.1687    8.6062 C.ar    1  UNL1        0.1528
     13 C          59.6552   88.4882    9.0968 C.ar    1  UNL1        0.0602
     14 C          60.5522   89.4027    9.8772 C.ar    1  UNL1        0.1438
     15 F          60.0341   90.7223   10.3677 F       1  UNL1       -0.2040
     16 C          61.9671   88.9978   10.1670 C.ar    1  UNL1        0.0441
     17 C          62.4850   87.6784    9.6764 C.ar    1  UNL1        0.0173
     18 C          61.5880   86.7637    8.8960 C.ar    1  UNL1        0.0852
     19 CL         62.1059   85.4443    8.4054 Cl      1  UNL1       -0.0799
     20 N          64.0958   90.4370   14.6834 N.pl3   1  UNL1       -0.3123
     21 H          64.3538   91.1965   15.2541 H       1  UNL1        0.1522
     22 C          63.8699   89.0846   15.2917 C.ar    1  UNL1        0.0514
     23 C          64.4059   87.8585   14.6140 C.ar    1  UNL1        0.0353
     24 C          64.1801   86.5061   15.2223 C.ar    1  UNL1        0.1002
     25 N          63.4184   86.3798   16.5082 N.ar    1  UNL1       -0.2422
     26 C          62.8824   87.6059   17.1860 C.ar    1  UNL1        0.1002
     27 C          63.1082   88.9583   16.5777 C.ar    1  UNL1        0.0353
@<TRIPOS>BOND
     1    11    12    1
     2    12    13   ar
     3    13    14   ar
     4    14    15    1
     5    14    16   ar
     6    16     1    1
     7     1     2   ar
     8     2     3   ar
     9     3    20    1
    10    20    22    1
    11    22    23   ar
    12    23    24   ar
    13    24    25   ar
    14    25    26   ar
    15    26    27   ar
    16     3     4   ar
    17     4     5   ar
    18     5     6   ar
    19     6     7   ar
    20     7     8   ar
    21     8     9   ar
    22    16    17   ar
    23    17    18   ar
    24    18    19    1
    25    18    12   ar
    26     9     1   ar
    27    27    22   ar
    28     8     4    1
    29    20    21    1
    30     9    10    1
@<TRIPOS>MOLECULE
*****
 27 30 0 0 0
SMALL
GASTEIGER

@<TRIPOS>ATOM
      1 C          62.5946   89.7447   10.8626 C.ar    1  UNL1        0.0611
      2 C          62.4658   88.3746   11.4594 C.ar    1  UNL1        0.0318
      3 C          61.5033   87.3869   10.8694 C.ar    1  UNL1        0.0527
      4 C          60.6696   87.7695    9.6825 C.ar    1  UNL1        0.0489
      5 C          59.6435   87.0138    8.8913 C.ar    1  UNL1        0.0249
      6 C          59.1382   87.9169    7.8055 C.ar    1  UNL1        0.1006
      7 N          59.8519   89.2307    7.9256 N.ar    1  UNL1       -0.2269
      8 C          60.7984   89.1396    9.0857 C.ar    1  UNL1        0.1417
      9 N          61.7609   90.1272    9.6758 N.ar    1  UNL1       -0.3384
     10 H          61.8455   91.0264    9.2841 H       1  UNL1        0.1674
     11 F          66.4447   93.6953   13.2228 F       1  UNL1       -0.2032
     12 C          65.4822   92.7076   12.6328 C.ar    1  UNL1        0.1528
     13 C          64.7838   91.7195   13.5192 C.ar    1  UNL1        0.0602
     14 C          63.8213   90.7319   12.9292 C.ar    1  UNL1        0.1438
     15 F          63.1229   89.7438   13.8158 F       1  UNL1       -0.2040
     16 C          63.5572   90.7324   11.4526 C.ar    1  UNL1        0.0441
     17 C          64.2555   91.7204   10.5662 C.ar    1  UNL1        0.0173
     18 C          65.2181   92.7081   11.1562 C.ar    1  UNL1        0.0852
     19 CL         65.9164   93.6962   10.2697 Cl      1  UNL1       -0.0799
     20 N          61.3745   86.0168   11.4663 N.pl3   1  UNL1       -0.3123
     21 H          60.5672   85.7757   11.9756 H       1  UNL1        0.1522
     22 C          62.4756   85.0142   11.2871 C.ar    1  UNL1        0.0514
     23 C          62.9025   84.6075    9.9078 C.ar    1  UNL1        0.0353
     24 C          64.0036   83.6049    9.7285 C.ar    1  UNL1        0.1002
     25 N          64.6779   83.0089   10.9285 N.ar    1  UNL1       -0.2422
     26 C          64.2511   83.4155   12.3078 C.ar    1  UNL1        0.1002
     27 C          63.1499   84.4182   12.4871 C.ar    1  UNL1        0.0353
@<TRIPOS>BOND
     1    11    12    1
     2    12    13   ar
     3    13    14   ar
     4    14    15    1
     5    14    16   ar
     6    16     1    1
     7     1     2   ar
     8     2     3   ar
     9     3    20    1
    10    20    22    1
    11    22    23   ar
    12    23    24   ar
    13    24    25   ar
    14    25    26   ar
    15    26    27   ar
    16     3     4   ar
    17     4     5   ar
    18     5     6   ar
    19     6     7   ar
    20     7     8   ar
    21     8     9   ar
    22    16    17   ar
    23    17    18   ar
    24    18    19    1
    25    18    12   ar
    26     9     1   ar
    27    27    22   ar
    28     8     4    1
    29    20    21    1
    30     9    10    1
@<TRIPOS>MOLECULE
*****
 27 30 0 0 0
SMALL
GASTEIGER

@<TRIPOS>ATOM
      1 C          62.9556   85.2878   12.7824 C.ar    1  UNL1        0.0611
      2 C          62.4068   86.0174   11.5923 C.ar    1  UNL1        0.0318
      3 C          62.5743   87.5039   11.4811 C.ar    1  UNL1        0.0527
      4 C          63.2906   88.2607   12.5600 C.ar    1  UNL1        0.0489
      5 C          63.6062   89.7179   12.7236 C.ar    1  UNL1        0.0249
      6 C          64.3501   89.8889   14.0149 C.ar    1  UNL1        0.1006
      7 N          64.4942   88.5373   14.6494 N.ar    1  UNL1       -0.2269
      8 C          63.8393   87.5310   13.7502 C.ar    1  UNL1        0.1417
      9 N          63.6718   86.0446   13.8614 N.ar    1  UNL1       -0.3384
     10 H          64.0320   85.5657   14.6425 H       1  UNL1        0.1674
     11 F          62.2856   79.3419   13.2275 F       1  UNL1       -0.2032
     12 C          62.4531   80.8283   13.1162 C.ar    1  UNL1        0.1528
     13 C          62.2164   81.7015   14.3128 C.ar    1  UNL1        0.0602
     14 C          62.3839   83.1879   14.2015 C.ar    1  UNL1        0.1438
     15 F          62.1471   84.0610   15.3981 F       1  UNL1       -0.2040
     16 C          62.7881   83.8012   12.8936 C.ar    1  UNL1        0.0441
     17 C          63.0248   82.9282   11.6972 C.ar    1  UNL1        0.0173
     18 C          62.8573   81.4417   11.8084 C.ar    1  UNL1        0.0852
     19 CL         63.0940   80.5686   10.6120 Cl      1  UNL1       -0.0799
     20 N          62.0255   88.2335   10.2909 N.pl3   1  UNL1       -0.3123
     21 H          62.1911   89.1982   10.1855 H       1  UNL1        0.1522
     22 C          61.2243   87.4932    9.2613 C.ar    1  UNL1        0.0514
     23 C          61.8321   86.3332    8.5298 C.ar    1  UNL1        0.0353
     24 C          61.0310   85.5929    7.5002 C.ar    1  UNL1        0.1002
     25 N          59.6221   86.0125    7.2020 N.ar    1  UNL1       -0.2422
     26 C          59.0143   87.1725    7.9335 C.ar    1  UNL1        0.1002
     27 C          59.8154   87.9129    8.9631 C.ar    1  UNL1        0.0353
@<TRIPOS>BOND
     1    11    12    1
     2    12    13   ar
     3    13    14   ar
     4    14    15    1
     5    14    16   ar
     6    16     1    1
     7     1     2   ar
     8     2     3   ar
     9     3    20    1
    10    20    22    1
    11    22    23   ar
    12    23    24   ar
    13    24    25   ar
    14    25    26   ar
    15    26    27   ar
    16     3     4   ar
    17     4     5   ar
    18     5     6   ar
    19     6     7   ar
    20     7     8   ar
    21     8     9   ar
    22    16    17   ar
    23    17    18   ar
    24    18    19    1
    25    18    12   ar
    26     9     1   ar
    27    27    22   ar
    28     8     4    1
    29    20    21    1
    30     9    10    1
@<TRIPOS>MOLECULE
*****
 27 30 0 0 0
SMALL
GASTEIGER

@<TRIPOS>ATOM
      1 C          61.9800   85.9618   10.7257 C.ar    1  UNL1        0.0611
      2 C          62.0099   87.2875   11.4267 C.ar    1  UNL1        0.0318
      3 C          61.3368   88.4776   10.8096 C.ar    1  UNL1        0.0527
      4 C          60.6340   88.3419    9.4914 C.ar    1  UNL1        0.0489
      5 C          59.8877   89.3305    8.6454 C.ar    1  UNL1        0.0249
      6 C          59.3967   88.6156    7.4215 C.ar    1  UNL1        0.1006
      7 N          59.8395   87.1853    7.5111 N.ar    1  UNL1       -0.2269
      8 C          60.6042   87.0161    8.7904 C.ar    1  UNL1        0.1417
      9 N          61.2772   85.8261    9.4076 N.ar    1  UNL1       -0.3384
     10 H          61.2577   84.9559    8.9475 H       1  UNL1        0.1674
     11 F          64.6722   81.2015   13.1940 F       1  UNL1       -0.2032
     12 C          63.9991   82.3916   12.5770 C.ar    1  UNL1        0.1528
     13 C          64.1549   82.6646   11.1102 C.ar    1  UNL1        0.0602
     14 C          63.4819   83.8546   10.4932 C.ar    1  UNL1        0.1438
     15 F          63.6378   84.1275    9.0264 F       1  UNL1       -0.2040
     16 C          62.6531   84.7717   11.3429 C.ar    1  UNL1        0.0441
     17 C          62.4973   84.4988   12.8095 C.ar    1  UNL1        0.0173
     18 C          63.1703   83.3087   13.4266 C.ar    1  UNL1        0.0852
     19 CL         63.0145   83.0358   14.8932 Cl      1  UNL1       -0.0799
     20 N          61.3667   89.8034   11.5107 N.pl3   1  UNL1       -0.3123
     21 H          60.5388   90.1793   11.8882 H       1  UNL1        0.1522
     22 C          62.6578   90.5564   11.6365 C.ar    1  UNL1        0.0514
     23 C          63.3817   90.5896   12.9499 C.ar    1  UNL1        0.0353
     24 C          64.6729   91.3426   13.0758 C.ar    1  UNL1        0.1002
     25 N          65.2402   92.0623   11.8883 N.ar    1  UNL1       -0.2422
     26 C          64.5164   92.0290   10.5749 C.ar    1  UNL1        0.1002
     27 C          63.2252   91.2761   10.4490 C.ar    1  UNL1        0.0353
@<TRIPOS>BOND
     1    11    12    1
     2    12    13   ar
     3    13    14   ar
     4    14    15    1
     5    14    16   ar
     6    16     1    1
     7     1     2   ar
     8     2     3   ar
     9     3    20    1
    10    20    22    1
    11    22    23   ar
    12    23    24   ar
    13    24    25   ar
    14    25    26   ar
    15    26    27   ar
    16     3     4   ar
    17     4     5   ar
    18     5     6   ar
    19     6     7   ar
    20     7     8   ar
    21     8     9   ar
    22    16    17   ar
    23    17    18   ar
    24    18    19    1
    25    18    12   ar
    26     9     1   ar
    27    27    22   ar
    28     8     4    1
    29    20    21    1
    30     9    10    1
@<TRIPOS>MOLECULE
*****
 27 30 0 0 0
SMALL
GASTEIGER

@<TRIPOS>ATOM
      1 C          62.5819   89.6040   10.9975 C.ar    1  UNL1        0.0611
      2 C          62.4484   88.2194   11.5587 C.ar    1  UNL1        0.0318
      3 C          61.4942   87.2454   10.9333 C.ar    1  UNL1        0.0527
      4 C          60.6737   87.6561    9.7468 C.ar    1  UNL1        0.0489
      5 C          59.6579   86.9189    8.9253 C.ar    1  UNL1        0.0249
      6 C          59.1637   87.8479    7.8564 C.ar    1  UNL1        0.1006
      7 N          59.8739   89.1593    8.0173 N.ar    1  UNL1       -0.2269
      8 C          60.8072   89.0407    9.1856 C.ar    1  UNL1        0.1417
      9 N          61.7613   90.0147    9.8110 N.ar    1  UNL1       -0.3384
     10 H          61.8489   90.9235    9.4427 H       1  UNL1        0.1674
     11 F          66.3982   93.5001   13.4987 F       1  UNL1       -0.2032
     12 C          65.4441   92.5261   12.8734 C.ar    1  UNL1        0.1528
     13 C          65.0052   92.7139   11.4515 C.ar    1  UNL1        0.0602
     14 C          64.0511   91.7398   10.8262 C.ar    1  UNL1        0.1438
     15 F          63.6121   91.9277    9.4042 F       1  UNL1       -0.2040
     16 C          63.5360   90.5780   11.6229 C.ar    1  UNL1        0.0441
     17 C          63.9749   90.3902   13.0448 C.ar    1  UNL1        0.0173
     18 C          64.9290   91.3642   13.6702 C.ar    1  UNL1        0.0852
     19 CL         65.3680   91.1764   15.0920 Cl      1  UNL1       -0.0799
     20 N          61.3608   85.8607   11.4946 N.pl3   1  UNL1       -0.3123
     21 H          60.5348   85.5957   11.9601 H       1  UNL1        0.1522
     22 C          62.4859   84.8798   11.3465 C.ar    1  UNL1        0.0514
     23 C          63.1453   84.3053   12.5652 C.ar    1  UNL1        0.0353
     24 C          64.2703   83.3244   12.4172 C.ar    1  UNL1        0.1002
     25 N          64.7360   82.9179   11.0505 N.ar    1  UNL1       -0.2422
     26 C          64.0766   83.4923    9.8318 C.ar    1  UNL1        0.1002
     27 C          62.9515   84.4732    9.9798 C.ar    1  UNL1        0.0353
@<TRIPOS>BOND
     1    11    12    1
     2    12    13   ar
     3    13    14   ar
     4    14    15    1
     5    14    16   ar
     6    16     1    1
     7     1     2   ar
     8     2     3   ar
     9     3    20    1
    10    20    22    1
    11    22    23   ar
    12    23    24   ar
    13    24    25   ar
    14    25    26   ar
    15    26    27   ar
    16     3     4   ar
    17     4     5   ar
    18     5     6   ar
    19     6     7   ar
    20     7     8   ar
    21     8     9   ar
    22    16    17   ar
    23    17    18   ar
    24    18    19    1
    25    18    12   ar
    26     9     1   ar
    27    27    22   ar
    28     8     4    1
    29    20    21    1
    30     9    10    1
@<TRIPOS>MOLECULE
*****
 27 30 0 0 0
SMALL
GASTEIGER

@<TRIPOS>ATOM
      1 C          62.3015   85.5687   11.3009 C.ar    1  UNL1        0.0611
      2 C          63.0696   86.0147   12.5095 C.ar    1  UNL1        0.0318
      3 C          63.7165   84.9991   13.4040 C.ar    1  UNL1        0.0527
      4 C          63.5952   83.5374   13.0897 C.ar    1  UNL1        0.0489
      5 C          64.1211   82.3150   13.7818 C.ar    1  UNL1        0.0249
      6 C          63.6780   81.1134   13.0008 C.ar    1  UNL1        0.1006
      7 N          62.8782   81.5933   11.8260 N.ar    1  UNL1       -0.2269
      8 C          62.8270   83.0914   11.8810 C.ar    1  UNL1        0.1417
      9 N          62.1802   84.1071   10.9865 N.ar    1  UNL1       -0.3384
     10 H          61.6760   83.8144   10.1932 H       1  UNL1        0.1674
     11 F          59.7141   89.6314    7.7231 F       1  UNL1       -0.2032
     12 C          60.3609   88.6157    8.6175 C.ar    1  UNL1        0.1528
     13 C          61.3554   89.0525    9.6521 C.ar    1  UNL1        0.0602
     14 C          62.0022   88.0368   10.5465 C.ar    1  UNL1        0.1438
     15 F          62.9967   88.4736   11.5811 F       1  UNL1       -0.2040
     16 C          61.6546   86.5844   10.4063 C.ar    1  UNL1        0.0441
     17 C          60.6602   86.1477    9.3718 C.ar    1  UNL1        0.0173
     18 C          60.0133   87.1633    8.4773 C.ar    1  UNL1        0.0852
     19 CL         59.0189   86.7266    7.4428 Cl      1  UNL1       -0.0799
     20 N          64.4846   85.4452   14.6128 N.pl3   1  UNL1       -0.3123
     21 H          65.2832   84.9462   14.9003 H       1  UNL1        0.1522
     22 C          64.0362   86.6514   15.3833 C.ar    1  UNL1        0.0514
     23 C          64.2976   88.0261   14.8432 C.ar    1  UNL1        0.0353
     24 C          63.8492   89.2325   15.6137 C.ar    1  UNL1        0.1002
     25 N          63.1393   89.0640   16.9243 N.ar    1  UNL1       -0.2422
     26 C          62.8779   87.6893   17.4644 C.ar    1  UNL1        0.1002
     27 C          63.3264   86.4830   16.6939 C.ar    1  UNL1        0.0353
@<TRIPOS>BOND
     1    11    12    1
     2    12    13   ar
     3    13    14   ar
     4    14    15    1
     5    14    16   ar
     6    16     1    1
     7     1     2   ar
     8     2     3   ar
     9     3    20    1
    10    20    22    1
    11    22    23   ar
    12    23    24   ar
    13    24    25   ar
    14    25    26   ar
    15    26    27   ar
    16     3     4   ar
    17     4     5   ar
    18     5     6   ar
    19     6     7   ar
    20     7     8   ar
    21     8     9   ar
    22    16    17   ar
    23    17    18   ar
    24    18    19    1
    25    18    12   ar
    26     9     1   ar
    27    27    22   ar
    28     8     4    1
    29    20    21    1
    30     9    10    1
@<TRIPOS>MOLECULE
*****
 27 30 0 0 0
SMALL
GASTEIGER

@<TRIPOS>ATOM
      1 C          62.6209   88.2709   11.5080 C.ar    1  UNL1        0.0611
      2 C          63.1262   87.4029   12.6221 C.ar    1  UNL1        0.0318
      3 C          63.9291   88.0050   13.7369 C.ar    1  UNL1        0.0527
      4 C          64.2268   89.4751   13.7376 C.ar    1  UNL1        0.0489
      5 C          64.9872   90.3447   14.6944 C.ar    1  UNL1        0.0249
      6 C          64.9519   91.7502   14.1717 C.ar    1  UNL1        0.1006
      7 N          64.1697   91.7493   12.8918 N.ar    1  UNL1       -0.2269
      8 C          63.7215   90.3432   12.6235 C.ar    1  UNL1        0.1417
      9 N          62.9186   89.7411   11.5087 N.ar    1  UNL1       -0.3384
     10 H          62.5870   90.3108   10.7775 H       1  UNL1        0.1674
     11 F          59.4091   85.8628    7.0488 F       1  UNL1       -0.2032
     12 C          60.2120   86.4648    8.1636 C.ar    1  UNL1        0.1528
     13 C          59.5823   87.4668    9.0852 C.ar    1  UNL1        0.0602
     14 C          60.3852   88.0688   10.2001 C.ar    1  UNL1        0.1438
     15 F          59.7554   89.0707   11.1217 F       1  UNL1       -0.2040
     16 C          61.8180   87.6688   10.3932 C.ar    1  UNL1        0.0441
     17 C          62.4477   86.6669    9.4716 C.ar    1  UNL1        0.0173
     18 C          61.6448   86.0649    8.3567 C.ar    1  UNL1        0.0852
     19 CL         62.2745   85.0630    7.4351 Cl      1  UNL1       -0.0799
     20 N          64.4343   87.1369   14.8510 N.pl3   1  UNL1       -0.3123
     21 H          65.0083   87.5208   15.5527 H       1  UNL1        0.1522
     22 C          64.0650   85.6838   14.8960 C.ar    1  UNL1        0.0514
     23 C          64.8528   84.6848   14.1013 C.ar    1  UNL1        0.0353
     24 C          64.4835   83.2317   14.1462 C.ar    1  UNL1        0.1002
     25 N          63.3265   82.7775   14.9859 N.ar    1  UNL1       -0.2422
     26 C          62.5388   83.7764   15.7806 C.ar    1  UNL1        0.1002
     27 C          62.9080   85.2296   15.7357 C.ar    1  UNL1        0.0353
@<TRIPOS>BOND
     1    11    12    1
     2    12    13   ar
     3    13    14   ar
     4    14    15    1
     5    14    16   ar
     6    16     1    1
     7     1     2   ar
     8     2     3   ar
     9     3    20    1
    10    20    22    1
    11    22    23   ar
    12    23    24   ar
    13    24    25   ar
    14    25    26   ar
    15    26    27   ar
    16     3     4   ar
    17     4     5   ar
    18     5     6   ar
    19     6     7   ar
    20     7     8   ar
    21     8     9   ar
    22    16    17   ar
    23    17    18   ar
    24    18    19    1
    25    18    12   ar
    26     9     1   ar
    27    27    22   ar
    28     8     4    1
    29    20    21    1
    30     9    10    1
@<TRIPOS>MOLECULE
*****
 27 30 0 0 0
SMALL
GASTEIGER

@<TRIPOS>ATOM
      1 C          62.0234   86.3985   11.0293 C.ar    1  UNL1        0.0611
      2 C          62.3764   87.8560   11.0566 C.ar    1  UNL1        0.0318
      3 C          61.7232   88.8041   10.0949 C.ar    1  UNL1        0.0527
      4 C          60.7171   88.2944    9.1060 C.ar    1  UNL1        0.0489
      5 C          59.9152   88.9855    8.0433 C.ar    1  UNL1        0.0249
      6 C          59.0665   87.9550    7.3593 C.ar    1  UNL1        0.1006
      7 N          59.3440   86.6270    7.9992 N.ar    1  UNL1       -0.2269
      8 C          60.3642   86.8367    9.0787 C.ar    1  UNL1        0.1417
      9 N          61.0173   85.8888   10.0404 N.ar    1  UNL1       -0.3384
     10 H          60.7856   84.9321   10.0225 H       1  UNL1        0.1674
     11 F          64.6359   82.6066   14.8760 F       1  UNL1       -0.2032
     12 C          63.9828   83.5546   13.9143 C.ar    1  UNL1        0.1528
     13 C          64.2032   85.0320   14.0511 C.ar    1  UNL1        0.0602
     14 C          63.5501   85.9799   13.0894 C.ar    1  UNL1        0.1438
     15 F          63.7706   87.4573   13.2262 F       1  UNL1       -0.2040
     16 C          62.6765   85.4505   11.9910 C.ar    1  UNL1        0.0441
     17 C          62.4561   83.9731   11.8542 C.ar    1  UNL1        0.0173
     18 C          63.1092   83.0251   12.8159 C.ar    1  UNL1        0.0852
     19 CL         62.8887   81.5478   12.6792 Cl      1  UNL1       -0.0799
     20 N          62.0763   90.2617   10.1222 N.pl3   1  UNL1       -0.3123
     21 H          61.6951   90.8731    9.4513 H       1  UNL1        0.1522
     22 C          63.0099   90.7877   11.1717 C.ar    1  UNL1        0.0514
     23 C          64.1575   91.6708   10.7801 C.ar    1  UNL1        0.0353
     24 C          65.0912   92.1968   11.8295 C.ar    1  UNL1        0.1002
     25 N          64.8774   91.8398   13.2706 N.ar    1  UNL1       -0.2422
     26 C          63.7298   90.9568   13.6623 C.ar    1  UNL1        0.1002
     27 C          62.7961   90.4307   12.6128 C.ar    1  UNL1        0.0353
@<TRIPOS>BOND
     1    11    12    1
     2    12    13   ar
     3    13    14   ar
     4    14    15    1
     5    14    16   ar
     6    16     1    1
     7     1     2   ar
     8     2     3   ar
     9     3    20    1
    10    20    22    1
    11    22    23   ar
    12    23    24   ar
    13    24    25   ar
    14    25    26   ar
    15    26    27   ar
    16     3     4   ar
    17     4     5   ar
    18     5     6   ar
    19     6     7   ar
    20     7     8   ar
    21     8     9   ar
    22    16    17   ar
    23    17    18   ar
    24    18    19    1
    25    18    12   ar
    26     9     1   ar
    27    27    22   ar
    28     8     4    1
    29    20    21    1
    30     9    10    1
@<TRIPOS>MOLECULE
*****
 27 30 0 0 0
SMALL
GASTEIGER

@<TRIPOS>ATOM
      1 C          62.2208   85.8025   11.3156 C.ar    1  UNL1        0.0611
      2 C          62.9889   86.3362   12.4882 C.ar    1  UNL1        0.0318
      3 C          63.6863   85.3909   13.4210 C.ar    1  UNL1        0.0527
      4 C          63.6155   83.9119   13.1812 C.ar    1  UNL1        0.0489
      5 C          64.1969   82.7457   13.9241 C.ar    1  UNL1        0.0249
      6 C          63.7881   81.4912   13.2105 C.ar    1  UNL1        0.1006
      7 N          62.9540   81.8821   12.0267 N.ar    1  UNL1       -0.2269
      8 C          62.8474   83.3782   12.0085 C.ar    1  UNL1        0.1417
      9 N          62.1500   84.3235   11.0757 N.ar    1  UNL1       -0.3384
     10 H          61.6459   83.9732   10.3061 H       1  UNL1        0.1674
     11 F          59.4314   89.5833    7.5840 F       1  UNL1       -0.2032
     12 C          60.1287   88.6381    8.5169 C.ar    1  UNL1        0.1528
     13 C          60.6304   87.3183    8.0106 C.ar    1  UNL1        0.0602
     14 C          61.3277   86.3731    8.9435 C.ar    1  UNL1        0.1438
     15 F          61.8293   85.0532    8.4371 F       1  UNL1       -0.2040
     16 C          61.5234   86.7478   10.3827 C.ar    1  UNL1        0.0441
     17 C          61.0219   88.0675   10.8890 C.ar    1  UNL1        0.0173
     18 C          60.3245   89.0128    9.9561 C.ar    1  UNL1        0.0852
     19 CL         59.8229   90.3326   10.4624 Cl      1  UNL1       -0.0799
     20 N          64.4545   85.9247   14.5937 N.pl3   1  UNL1       -0.3123
     21 H          65.2177   85.4179   14.9541 H       1  UNL1        0.1522
     22 C          64.0598   87.2306   15.2171 C.ar    1  UNL1        0.0514
     23 C          63.3629   87.2473   16.5453 C.ar    1  UNL1        0.0353
     24 C          62.9682   88.5532   17.1689 C.ar    1  UNL1        0.1002
     25 N          63.2703   89.8424   16.4642 N.ar    1  UNL1       -0.2422
     26 C          63.9672   89.8257   15.1360 C.ar    1  UNL1        0.1002
     27 C          64.3619   88.5198   14.5124 C.ar    1  UNL1        0.0353
@<TRIPOS>BOND
     1    11    12    1
     2    12    13   ar
     3    13    14   ar
     4    14    15    1
     5    14    16   ar
     6    16     1    1
     7     1     2   ar
     8     2     3   ar
     9     3    20    1
    10    20    22    1
    11    22    23   ar
    12    23    24   ar
    13    24    25   ar
    14    25    26   ar
    15    26    27   ar
    16     3     4   ar
    17     4     5   ar
    18     5     6   ar
    19     6     7   ar
    20     7     8   ar
    21     8     9   ar
    22    16    17   ar
    23    17    18   ar
    24    18    19    1
    25    18    12   ar
    26     9     1   ar
    27    27    22   ar
    28     8     4    1
    29    20    21    1
    30     9    10    1
