@<TRIPOS>MOLECULE
*****
 41 46 0 0 0
SMALL
GASTEIGER

@<TRIPOS>ATOM
      1 C          64.9246   96.5479   -6.6189 C.3     1  UNL1        0.0718
      2 C          63.5349   96.0055   -6.4626 C.ar    1  UNL1        0.1207
      3 N          62.5284   95.8295   -7.5608 N.ar    1  UNL1       -0.2294
      4 C          61.2791   95.2590   -6.9576 C.ar    1  UNL1        0.1174
      5 C          59.9585   94.8776   -7.5578 C.ar    1  UNL1        0.1193
      6 N          58.8721   94.3195   -6.6869 N.ar    1  UNL1       -0.2421
      7 C          59.1065   94.1430   -5.2159 C.ar    1  UNL1        0.0850
      8 C          58.0201   93.5849   -4.3451 C.ar    1  UNL1        0.0488
      9 C          58.2544   93.4083   -2.8740 C.ar    1  UNL1        0.1416
     10 F          57.1681   92.8503   -2.0032 F       1  UNL1       -0.2041
     11 C          59.5752   93.7898   -2.2739 C.ar    1  UNL1        0.0284
     12 C          60.6615   94.3478   -3.1447 C.ar    1  UNL1        0.0052
     13 C          60.4272   94.5244   -4.6158 C.ar    1  UNL1        0.0351
     14 C          61.5135   95.0825   -5.4866 C.ar    1  UNL1        0.0815
     15 N          62.9076   95.5438   -5.1807 N.ar    1  UNL1       -0.3167
     16 C          63.5599   95.5435   -3.8300 C.3     1  UNL1        0.0867
     17 C          63.8649   94.2446   -3.1446 C.3     1  UNL1        0.0239
     18 C          64.5172   94.2442   -1.7939 C.3     1  UNL1        0.0172
     19 C          64.8646   95.5429   -1.1284 C.3     1  UNL1        0.0533
     20 N          65.3486   94.5786   -0.0863 N.3     1  UNL1       -0.3223
     21 C          64.5596   96.8419   -1.8137 C.3     1  UNL1        0.0172
     22 C          63.9073   96.8422   -3.1645 C.3     1  UNL1        0.0239
     23 H          65.1775   93.6236   -0.4011 H       1  UNL1        0.1188
     24 H          64.8488   94.7433    0.7875 H       1  UNL1        0.1188
     25 C          65.3800   96.5067   -0.1010 C.3     1  UNL1        0.1195
     26 C          65.1779   96.2261    1.3585 C.1     1  UNL1        0.0745
     27 N          64.9758   95.9455    2.8181 N.1     1  UNL1       -0.1958
     28 C          59.8095   93.6132   -0.8029 C.ar    1  UNL1        0.0129
     29 C          60.3339   92.3095   -0.2781 C.ar    1  UNL1        0.0040
     30 C          60.5683   92.1329    1.1929 C.ar    1  UNL1        0.0377
     31 C          60.2782   93.2601    2.1392 C.ar    1  UNL1        0.1495
     32 C          59.7538   94.5637    1.6144 C.ar    1  UNL1        0.0490
     33 C          59.5195   94.7403    0.1434 C.ar    1  UNL1        0.0608
     34 CL         58.9951   96.0440   -0.3813 Cl      1  UNL1       -0.0821
     35 O          60.5126   93.0835    3.6102 O.3     1  UNL1       -0.4223
     36 C          59.6908   92.0984    4.3876 C.ar    1  UNL1        0.3246
     37 N          60.3643   90.9957    5.1494 N.ar    1  UNL1       -0.1924
     38 C          59.5425   90.0106    5.9269 C.ar    1  UNL1        0.1053
     39 C          58.0473   90.1282    5.9425 C.ar    1  UNL1        0.0416
     40 C          57.3737   91.2310    5.1806 C.ar    1  UNL1        0.1053
     41 N          58.1955   92.2161    4.4033 N.ar    1  UNL1       -0.1924
@<TRIPOS>BOND
     1     1     2    1
     2     2     3   ar
     3     3     4   ar
     4     4     5   ar
     5     5     6   ar
     6     6     7   ar
     7     7     8   ar
     8     8     9   ar
     9     9    10    1
    10     9    11   ar
    11    11    28    1
    12    28    29   ar
    13    29    30   ar
    14    30    31   ar
    15    31    35    1
    16    35    36    1
    17    36    37   ar
    18    37    38   ar
    19    38    39   ar
    20    39    40   ar
    21    40    41   ar
    22    31    32   ar
    23    32    33   ar
    24    33    34    1
    25    11    12   ar
    26    12    13   ar
    27    13    14   ar
    28    14    15   ar
    29    16    15    1
    30    16    17    1
    31    17    18    1
    32    18    19    1
    33    19    20    1
    34    19    25    1
    35    25    26    1
    36    26    27    3
    37    19    21    1
    38    21    22    1
    39    15     2   ar
    40    22    16    1
    41    14     4   ar
    42    13     7   ar
    43    33    28   ar
    44    41    36   ar
    45    20    23    1
    46    20    24    1
@<TRIPOS>MOLECULE
*****
 41 46 0 0 0
SMALL
GASTEIGER

@<TRIPOS>ATOM
      1 C          62.1332   81.2984   12.3936 C.3     1  UNL1        0.0718
      2 C          62.3974   82.3350   13.4451 C.ar    1  UNL1        0.1207
      3 N          62.4605   82.0944   14.9243 N.ar    1  UNL1       -0.2294
      4 C          62.7471   83.4050   15.5954 C.ar    1  UNL1        0.1174
      5 C          62.9189   83.7774   17.0382 C.ar    1  UNL1        0.1193
      6 N          63.2047   85.2005   17.4165 N.ar    1  UNL1       -0.2421
      7 C          63.3187   86.2511   16.3520 C.ar    1  UNL1        0.0850
      8 C          63.6045   87.6742   16.7303 C.ar    1  UNL1        0.0488
      9 C          63.7184   88.7249   15.6658 C.ar    1  UNL1        0.1416
     10 F          64.0042   90.1479   16.0441 F       1  UNL1       -0.2041
     11 C          63.5466   88.3524   14.2230 C.ar    1  UNL1        0.0284
     12 C          63.2608   86.9293   13.8447 C.ar    1  UNL1        0.0052
     13 C          63.1468   85.8787   14.9092 C.ar    1  UNL1        0.0351
     14 C          62.8610   84.4556   14.5309 C.ar    1  UNL1        0.0815
     15 N          62.6450   83.7943   13.2019 N.ar    1  UNL1       -0.3167
     16 C          62.6717   84.4732   11.8646 C.3     1  UNL1        0.0867
     17 C          63.5840   83.9694   10.7858 C.3     1  UNL1        0.0239
     18 C          63.6107   84.6483    9.4485 C.3     1  UNL1        0.0172
     19 C          62.7252   85.8311    9.1900 C.3     1  UNL1        0.0533
     20 N          63.4129   85.7253    7.8611 N.3     1  UNL1       -0.3223
     21 C          61.8129   86.3350   10.2688 C.3     1  UNL1        0.0172
     22 C          61.7861   85.6561   11.6061 C.3     1  UNL1        0.0239
     23 H          64.0675   84.9433    7.8784 H       1  UNL1        0.1188
     24 H          63.9204   86.5894    7.6712 H       1  UNL1        0.1188
     25 C          62.0784   86.9771    8.4700 C.3     1  UNL1        0.1195
     26 C          60.6082   86.9435    8.1747 C.1     1  UNL1        0.0745
     27 N          59.1380   86.9099    7.8794 N.1     1  UNL1       -0.1958
     28 C          63.6606   89.4030   13.1585 C.ar    1  UNL1        0.0129
     29 C          62.7387   89.3752   11.9755 C.ar    1  UNL1        0.0040
     30 C          62.8526   90.4258   10.9110 C.ar    1  UNL1        0.0377
     31 C          63.8885   91.5043   11.0295 C.ar    1  UNL1        0.1495
     32 C          64.8104   91.5321   12.2124 C.ar    1  UNL1        0.0490
     33 C          64.6964   90.4814   13.2769 C.ar    1  UNL1        0.0608
     34 CL         65.6182   90.5092   14.4598 Cl      1  UNL1       -0.0821
     35 O          64.0025   92.5549    9.9650 O.3     1  UNL1       -0.4223
     36 C          65.1851   93.4775    9.9453 C.ar    1  UNL1        0.3246
     37 N          66.5376   92.9551    9.5608 N.ar    1  UNL1       -0.1924
     38 C          67.7202   93.8777    9.5412 C.ar    1  UNL1        0.1053
     39 C          67.5503   95.3227    9.9061 C.ar    1  UNL1        0.0416
     40 C          66.1977   95.8451   10.2906 C.ar    1  UNL1        0.1053
     41 N          65.0152   94.9225   10.3102 N.ar    1  UNL1       -0.1924
@<TRIPOS>BOND
     1     1     2    1
     2     2     3   ar
     3     3     4   ar
     4     4     5   ar
     5     5     6   ar
     6     6     7   ar
     7     7     8   ar
     8     8     9   ar
     9     9    10    1
    10     9    11   ar
    11    11    28    1
    12    28    29   ar
    13    29    30   ar
    14    30    31   ar
    15    31    35    1
    16    35    36    1
    17    36    37   ar
    18    37    38   ar
    19    38    39   ar
    20    39    40   ar
    21    40    41   ar
    22    31    32   ar
    23    32    33   ar
    24    33    34    1
    25    11    12   ar
    26    12    13   ar
    27    13    14   ar
    28    14    15   ar
    29    16    15    1
    30    16    17    1
    31    17    18    1
    32    18    19    1
    33    19    20    1
    34    19    25    1
    35    25    26    1
    36    26    27    3
    37    19    21    1
    38    21    22    1
    39    15     2   ar
    40    22    16    1
    41    14     4   ar
    42    13     7   ar
    43    33    28   ar
    44    41    36   ar
    45    20    23    1
    46    20    24    1
