@<TRIPOS>MOLECULE
*****
 31 35 0 0 0
SMALL
GASTEIGER

@<TRIPOS>ATOM
      1 N          66.5740   92.4274   12.2927 N.3     1  UNL1       -0.2679
      2 C          67.1437   92.8469   10.9700 C.3     1  UNL1        0.0978
      3 C          68.0706   91.9304   10.2280 C.3     1  UNL1        0.0224
      4 C          68.6403   92.3499    8.9053 C.3     1  UNL1        0.0065
      5 C          68.2831   93.6860    8.3247 C.3     1  UNL1        0.0277
      6 C          67.3561   94.6026    9.0667 C.ar    1  UNL1       -0.0073
      7 C          66.9989   95.9388    8.4861 C.ar    1  UNL1       -0.0015
      8 C          66.0719   96.8553    9.2282 C.ar    1  UNL1        0.0203
      9 C          65.5022   96.4358   10.5508 C.ar    1  UNL1        0.0985
     10 N          65.8595   95.0997   11.1314 N.ar    1  UNL1       -0.2471
     11 C          66.7865   94.1830   10.3894 C.ar    1  UNL1        0.0695
     12 C          67.4887   91.9960   13.4004 C.3     1  UNL1        0.0724
     13 C          66.3151   92.5597   15.9892 C.3     1  UNL1        0.0169
     14 C          67.7002   93.1314   16.0581 C.3     1  UNL1        0.0028
     15 C          67.2309   92.4513   14.8062 C.3     1  UNL1        0.0174
     16 N          63.9229   91.5523   15.8769 N.3     1  UNL1       -0.3211
     17 C          64.9867   92.2923   16.6324 C.3     1  UNL1        0.0651
     18 H          63.0921   91.4605   16.4615 H       1  UNL1        0.1189
     19 H          64.2665   90.6252   15.6262 H       1  UNL1        0.1189
     20 C          65.0896   92.4392   12.5076 C.3     1  UNL1        0.0886
     21 C          64.2852   91.1986   12.2547 C.3     1  UNL1        0.0748
     22 C          63.4010   91.1115   11.0461 C.3     1  UNL1        0.0432
     23 C          62.5966   89.8709   10.7932 C.ar    1  UNL1       -0.0234
     24 C          61.7125   89.7837    9.5846 C.ar    1  UNL1       -0.0045
     25 C          60.9081   88.5431    9.3317 C.ar    1  UNL1       -0.0003
     26 C          60.9879   87.3897   10.2874 C.ar    1  UNL1       -0.0003
     27 C          61.8721   87.4769   11.4960 C.ar    1  UNL1       -0.0032
     28 C          62.6764   88.7175   11.7489 C.ar    1  UNL1       -0.0103
     29 C          63.5606   88.8047   12.9575 C.3     1  UNL1        0.0953
     30 N          64.3649   90.0453   13.2104 N.3     1  UNL1       -0.2934
     31 H          65.3434   89.7596   13.2460 H       1  UNL1        0.1236
@<TRIPOS>BOND
     1    16    17    1
     2    17    13    1
     3    13    14    1
     4    14    15    1
     5    15    12    1
     6    12     1    1
     7     1    20    1
     8    21    20    1
     9    21    22    1
    10    22    23    1
    11    23    24   ar
    12    24    25   ar
    13    25    26   ar
    14    26    27   ar
    15    27    28   ar
    16    28    29    1
    17    29    30    1
    18     2     1    1
    19     2     3    1
    20     3     4    1
    21     4     5    1
    22     5     6    1
    23     6     7   ar
    24     7     8   ar
    25     8     9   ar
    26     9    10   ar
    27    10    11   ar
    28    15    13    1
    29    30    21    1
    30    11     2    1
    31    28    23   ar
    32    11     6   ar
    33    16    18    1
    34    16    19    1
    35    30    31    1
@<TRIPOS>MOLECULE
*****
 31 35 0 0 0
SMALL
GASTEIGER

@<TRIPOS>ATOM
      1 N          62.4495   87.2005   11.8724 N.3     1  UNL1       -0.2679
      2 C          62.7817   88.6301   11.5626 C.3     1  UNL1        0.0978
      3 C          62.3801   89.2250   10.2455 C.3     1  UNL1        0.0224
      4 C          62.7123   90.6546    9.9358 C.3     1  UNL1        0.0065
      5 C          63.4460   91.4893   10.9431 C.3     1  UNL1        0.0277
      6 C          63.8475   90.8944   12.2602 C.ar    1  UNL1       -0.0073
      7 C          64.5813   91.7292   13.2677 C.ar    1  UNL1       -0.0015
      8 C          64.9829   91.1343   14.5848 C.ar    1  UNL1        0.0203
      9 C          64.6507   89.7047   14.8946 C.ar    1  UNL1        0.0985
     10 N          63.9170   88.8700   13.8872 N.ar    1  UNL1       -0.2471
     11 C          63.5154   89.4648   12.5700 C.ar    1  UNL1        0.0695
     12 C          61.3253   86.5184   11.1508 C.3     1  UNL1        0.0724
     13 C          60.8569   86.0578    8.3284 C.3     1  UNL1        0.0169
     14 C          62.3048   85.7282    8.5405 C.3     1  UNL1        0.0028
     15 C          61.4623   86.1833    9.6951 C.3     1  UNL1        0.0174
     16 N          58.3885   86.7618    7.9271 N.3     1  UNL1       -0.3211
     17 C          59.6715   86.1757    7.4169 C.3     1  UNL1        0.0651
     18 H          57.6950   86.7649    7.1791 H       1  UNL1        0.1189
     19 H          58.5531   87.7179    8.2422 H       1  UNL1        0.1189
     20 C          63.2417   86.4530   12.9037 C.3     1  UNL1        0.0886
     21 C          62.9810   84.9945   13.1376 C.3     1  UNL1        0.0748
     22 C          63.2100   84.0051   12.0336 C.3     1  UNL1        0.0432
     23 C          62.9493   82.5466   12.2675 C.ar    1  UNL1       -0.0234
     24 C          63.1783   81.5573   11.1635 C.ar    1  UNL1       -0.0045
     25 C          62.9176   80.0988   11.3974 C.ar    1  UNL1       -0.0003
     26 C          62.4279   79.6295   12.7353 C.ar    1  UNL1       -0.0003
     27 C          62.1988   80.6189   13.8394 C.ar    1  UNL1       -0.0032
     28 C          62.4595   82.0774   13.6055 C.ar    1  UNL1       -0.0103
     29 C          62.2305   83.0667   14.7094 C.3     1  UNL1        0.0953
     30 N          62.4912   84.5252   14.4755 N.3     1  UNL1       -0.2934
     31 H          63.1885   84.8135   15.1619 H       1  UNL1        0.1236
@<TRIPOS>BOND
     1    16    17    1
     2    17    13    1
     3    13    14    1
     4    14    15    1
     5    15    12    1
     6    12     1    1
     7     1    20    1
     8    21    20    1
     9    21    22    1
    10    22    23    1
    11    23    24   ar
    12    24    25   ar
    13    25    26   ar
    14    26    27   ar
    15    27    28   ar
    16    28    29    1
    17    29    30    1
    18     2     1    1
    19     2     3    1
    20     3     4    1
    21     4     5    1
    22     5     6    1
    23     6     7   ar
    24     7     8   ar
    25     8     9   ar
    26     9    10   ar
    27    10    11   ar
    28    15    13    1
    29    30    21    1
    30    11     2    1
    31    28    23   ar
    32    11     6   ar
    33    16    18    1
    34    16    19    1
    35    30    31    1
@<TRIPOS>MOLECULE
*****
 31 35 0 0 0
SMALL
GASTEIGER

@<TRIPOS>ATOM
      1 N          61.8039   87.6383   11.4541 N.3     1  UNL1       -0.2679
      2 C          62.3564   86.4028   10.8076 C.3     1  UNL1        0.0978
      3 C          62.6160   86.3814    9.3304 C.3     1  UNL1        0.0224
      4 C          63.1686   85.1458    8.6838 C.3     1  UNL1        0.0065
      5 C          63.4616   83.9317    9.5144 C.3     1  UNL1        0.0277
      6 C          63.2020   83.9531   10.9916 C.ar    1  UNL1       -0.0073
      7 C          63.4949   82.7388   11.8223 C.ar    1  UNL1       -0.0015
      8 C          63.2353   82.7602   13.2994 C.ar    1  UNL1        0.0203
      9 C          62.6828   83.9958   13.9460 C.ar    1  UNL1        0.0985
     10 N          62.3898   85.2100   13.1154 N.ar    1  UNL1       -0.2471
     11 C          62.6494   85.1886   11.6382 C.ar    1  UNL1        0.0695
     12 C          60.4270   88.1177   11.1014 C.3     1  UNL1        0.0724
     13 C          59.5408   87.9108    8.3502 C.3     1  UNL1        0.0169
     14 C          59.9844   89.3349    8.5091 C.3     1  UNL1        0.0028
     15 C          60.0710   88.3884    9.6696 C.3     1  UNL1        0.0174
     16 N          59.7561   85.5459    7.2964 N.3     1  UNL1       -0.3211
     17 C          58.9786   86.8129    7.4967 C.3     1  UNL1        0.0651
     18 H          59.2283   84.9149    6.6933 H       1  UNL1        0.1189
     19 H          59.9161   85.0988    8.1991 H       1  UNL1        0.1189
     20 C          62.6282   88.3946   12.4534 C.3     1  UNL1        0.0886
     21 C          63.3050   89.6722   12.0541 C.3     1  UNL1        0.0748
     22 C          64.2078   90.3772   13.0226 C.3     1  UNL1        0.0432
     23 C          64.8846   91.6549   12.6232 C.ar    1  UNL1       -0.0234
     24 C          65.7874   92.3599   13.5917 C.ar    1  UNL1       -0.0045
     25 C          66.4641   93.6376   13.1923 C.ar    1  UNL1       -0.0003
     26 C          66.2381   94.2103   11.8245 C.ar    1  UNL1       -0.0003
     27 C          65.3353   93.5053   10.8560 C.ar    1  UNL1       -0.0032
     28 C          64.6585   92.2276   11.2554 C.ar    1  UNL1       -0.0103
     29 C          63.7558   91.5226   10.2869 C.3     1  UNL1        0.0953
     30 N          63.0790   90.2449   10.6863 N.3     1  UNL1       -0.2934
     31 H          63.3737   89.5339   10.0170 H       1  UNL1        0.1236
@<TRIPOS>BOND
     1    16    17    1
     2    17    13    1
     3    13    14    1
     4    14    15    1
     5    15    12    1
     6    12     1    1
     7     1    20    1
     8    21    20    1
     9    21    22    1
    10    22    23    1
    11    23    24   ar
    12    24    25   ar
    13    25    26   ar
    14    26    27   ar
    15    27    28   ar
    16    28    29    1
    17    29    30    1
    18     2     1    1
    19     2     3    1
    20     3     4    1
    21     4     5    1
    22     5     6    1
    23     6     7   ar
    24     7     8   ar
    25     8     9   ar
    26     9    10   ar
    27    10    11   ar
    28    15    13    1
    29    30    21    1
    30    11     2    1
    31    28    23   ar
    32    11     6   ar
    33    16    18    1
    34    16    19    1
    35    30    31    1
@<TRIPOS>MOLECULE
*****
 31 35 0 0 0
SMALL
GASTEIGER

@<TRIPOS>ATOM
      1 N          63.6988   90.2112   13.2312 N.3     1  UNL1       -0.2679
      2 C          64.5533   91.3377   12.7304 C.3     1  UNL1        0.0978
      3 C          64.4879   91.7448   11.2883 C.3     1  UNL1        0.0224
      4 C          65.3424   92.8714   10.7875 C.3     1  UNL1        0.0065
      5 C          66.2623   93.5908   11.7289 C.3     1  UNL1        0.0277
      6 C          66.3276   93.1836   13.1711 C.ar    1  UNL1       -0.0073
      7 C          67.2475   93.9030   14.1126 C.ar    1  UNL1       -0.0015
      8 C          67.3129   93.4959   15.5547 C.ar    1  UNL1        0.0203
      9 C          66.4584   92.3693   16.0555 C.ar    1  UNL1        0.0985
     10 N          65.5386   91.6499   15.1141 N.ar    1  UNL1       -0.2471
     11 C          65.4732   92.0571   13.6718 C.ar    1  UNL1        0.0695
     12 C          64.2631   89.2155   14.2008 C.3     1  UNL1        0.0724
     13 C          63.1671   88.2055   16.6860 C.3     1  UNL1        0.0169
     14 C          63.1088   89.6988   16.8145 C.3     1  UNL1        0.0028
     15 C          63.6601   89.0744   15.5671 C.3     1  UNL1        0.0174
     16 N          61.5524   86.2253   17.1567 N.3     1  UNL1       -0.3211
     17 C          62.9162   86.8416   17.2578 C.3     1  UNL1        0.0651
     18 H          61.5624   85.3041   17.5945 H       1  UNL1        0.1189
     19 H          61.2933   86.1323   16.1746 H       1  UNL1        0.1189
     20 C          62.2800   90.0802   12.7623 C.3     1  UNL1        0.0886
     21 C          61.9203   89.0419   11.7413 C.3     1  UNL1        0.0748
     22 C          61.0098   89.3939   10.6024 C.3     1  UNL1        0.0432
     23 C          60.6500   88.3556    9.5813 C.ar    1  UNL1       -0.0234
     24 C          59.7395   88.7075    8.4424 C.ar    1  UNL1       -0.0045
     25 C          59.3798   87.6692    7.4214 C.ar    1  UNL1       -0.0003
     26 C          59.9306   86.2790    7.5392 C.ar    1  UNL1       -0.0003
     27 C          60.8412   85.9270    8.6782 C.ar    1  UNL1       -0.0032
     28 C          61.2009   86.9653    9.6992 C.ar    1  UNL1       -0.0103
     29 C          62.1114   86.6134   10.8381 C.3     1  UNL1        0.0953
     30 N          62.4711   87.6517   11.8591 N.3     1  UNL1       -0.2934
     31 H          63.4876   87.7358   11.8481 H       1  UNL1        0.1236
@<TRIPOS>BOND
     1    16    17    1
     2    17    13    1
     3    13    14    1
     4    14    15    1
     5    15    12    1
     6    12     1    1
     7     1    20    1
     8    21    20    1
     9    21    22    1
    10    22    23    1
    11    23    24   ar
    12    24    25   ar
    13    25    26   ar
    14    26    27   ar
    15    27    28   ar
    16    28    29    1
    17    29    30    1
    18     2     1    1
    19     2     3    1
    20     3     4    1
    21     4     5    1
    22     5     6    1
    23     6     7   ar
    24     7     8   ar
    25     8     9   ar
    26     9    10   ar
    27    10    11   ar
    28    15    13    1
    29    30    21    1
    30    11     2    1
    31    28    23   ar
    32    11     6   ar
    33    16    18    1
    34    16    19    1
    35    30    31    1
@<TRIPOS>MOLECULE
*****
 31 35 0 0 0
SMALL
GASTEIGER

@<TRIPOS>ATOM
      1 N          61.2206   89.6396   10.8342 N.3     1  UNL1       -0.2679
      2 C          62.4645   90.4366   11.0939 C.3     1  UNL1        0.0978
      3 C          63.0987   91.2203    9.9833 C.3     1  UNL1        0.0224
      4 C          64.3426   92.0173   10.2430 C.3     1  UNL1        0.0065
      5 C          64.9522   92.0307   11.6135 C.3     1  UNL1        0.0277
      6 C          64.3180   91.2470   12.7241 C.ar    1  UNL1       -0.0073
      7 C          64.9277   91.2603   14.0946 C.ar    1  UNL1       -0.0015
      8 C          64.2935   90.4767   15.2052 C.ar    1  UNL1        0.0203
      9 C          63.0496   89.6796   14.9455 C.ar    1  UNL1        0.0985
     10 N          62.4399   89.6663   13.5751 N.ar    1  UNL1       -0.2471
     11 C          63.0741   90.4500   12.4643 C.ar    1  UNL1        0.0695
     12 C          60.1797   90.1609    9.8883 C.3     1  UNL1        0.0724
     13 C          59.4348   88.1598    7.9291 C.3     1  UNL1        0.0169
     14 C          59.7866   89.3771    7.1263 C.3     1  UNL1        0.0028
     15 C          59.8748   89.4147    8.6232 C.3     1  UNL1        0.0174
     16 N          59.8063   85.6513    7.3640 N.3     1  UNL1       -0.3211
     17 C          58.9777   86.7326    7.9919 C.3     1  UNL1        0.0651
     18 H          59.3490   84.7499    7.5006 H       1  UNL1        0.1189
     19 H          60.7288   85.6340    7.7990 H       1  UNL1        0.1189
     20 C          61.0175   88.3213   11.5203 C.3     1  UNL1        0.0886
     21 C          61.7291   87.0987   11.0214 C.3     1  UNL1        0.0748
     22 C          62.0290   85.9693   11.9620 C.3     1  UNL1        0.0432
     23 C          62.7406   84.7466   11.4631 C.ar    1  UNL1       -0.0234
     24 C          63.0404   83.6173   12.4035 C.ar    1  UNL1       -0.0045
     25 C          63.7520   82.3946   11.9046 C.ar    1  UNL1       -0.0003
     26 C          64.1637   82.3014   10.4653 C.ar    1  UNL1       -0.0003
     27 C          63.8638   83.4308    9.5247 C.ar    1  UNL1       -0.0032
     28 C          63.1522   84.6535   10.0236 C.ar    1  UNL1       -0.0103
     29 C          62.8524   85.7828    9.0832 C.3     1  UNL1        0.0953
     30 N          62.1408   87.0054    9.5821 N.3     1  UNL1       -0.2934
     31 H          61.2908   87.0989    9.0260 H       1  UNL1        0.1236
@<TRIPOS>BOND
     1    16    17    1
     2    17    13    1
     3    13    14    1
     4    14    15    1
     5    15    12    1
     6    12     1    1
     7     1    20    1
     8    21    20    1
     9    21    22    1
    10    22    23    1
    11    23    24   ar
    12    24    25   ar
    13    25    26   ar
    14    26    27   ar
    15    27    28   ar
    16    28    29    1
    17    29    30    1
    18     2     1    1
    19     2     3    1
    20     3     4    1
    21     4     5    1
    22     5     6    1
    23     6     7   ar
    24     7     8   ar
    25     8     9   ar
    26     9    10   ar
    27    10    11   ar
    28    15    13    1
    29    30    21    1
    30    11     2    1
    31    28    23   ar
    32    11     6   ar
    33    16    18    1
    34    16    19    1
    35    30    31    1
@<TRIPOS>MOLECULE
*****
 31 35 0 0 0
SMALL
GASTEIGER

@<TRIPOS>ATOM
      1 N          62.1029   85.8498   10.2131 N.3     1  UNL1       -0.2679
      2 C          62.8894   84.6581   10.6728 C.3     1  UNL1        0.0978
      3 C          63.6739   83.8498    9.6823 C.3     1  UNL1        0.0224
      4 C          64.4604   82.6581   10.1420 C.3     1  UNL1        0.0065
      5 C          64.4625   82.2748   11.5921 C.3     1  UNL1        0.0277
      6 C          63.6780   83.0832   12.5826 C.ar    1  UNL1       -0.0073
      7 C          63.6801   82.6999   14.0329 C.ar    1  UNL1       -0.0015
      8 C          62.8956   83.5082   15.0234 C.ar    1  UNL1        0.0203
      9 C          62.1091   84.6999   14.5637 C.ar    1  UNL1        0.0985
     10 N          62.1070   85.0832   13.1135 N.ar    1  UNL1       -0.2471
     11 C          62.8915   84.2748   12.1229 C.ar    1  UNL1        0.0695
     12 C          61.8002   86.0317    8.7553 C.3     1  UNL1        0.0724
     13 C          59.7570   87.9195    7.9438 C.3     1  UNL1        0.0169
     14 C          59.0631   86.5903    7.9847 C.3     1  UNL1        0.0028
     15 C          60.5193   86.6873    8.3314 C.3     1  UNL1        0.0174
     16 N          59.4153   89.9214    6.3233 N.3     1  UNL1       -0.3211
     17 C          59.7174   89.3985    7.6963 C.3     1  UNL1        0.0651
     18 H          59.4294   90.9412    6.3372 H       1  UNL1        0.1189
     19 H          58.4929   89.5980    6.0317 H       1  UNL1        0.1189
     20 C          61.6190   86.8595   11.2112 C.3     1  UNL1        0.0886
     21 C          62.3556   88.1546   11.3853 C.3     1  UNL1        0.0748
     22 C          63.1342   88.4115   12.6415 C.3     1  UNL1        0.0432
     23 C          63.8708   89.7066   12.8156 C.ar    1  UNL1       -0.0234
     24 C          64.6493   89.9636   14.0717 C.ar    1  UNL1       -0.0045
     25 C          65.3859   91.2586   14.2458 C.ar    1  UNL1       -0.0003
     26 C          65.3440   92.2966   13.1638 C.ar    1  UNL1       -0.0003
     27 C          64.5655   92.0396   11.9076 C.ar    1  UNL1       -0.0032
     28 C          63.8289   90.7446   11.7335 C.ar    1  UNL1       -0.0103
     29 C          63.0503   90.4876   10.4774 C.3     1  UNL1        0.0953
     30 N          62.3137   89.1926   10.3033 N.3     1  UNL1       -0.2934
     31 H          62.6842   88.7541    9.4602 H       1  UNL1        0.1236
@<TRIPOS>BOND
     1    16    17    1
     2    17    13    1
     3    13    14    1
     4    14    15    1
     5    15    12    1
     6    12     1    1
     7     1    20    1
     8    21    20    1
     9    21    22    1
    10    22    23    1
    11    23    24   ar
    12    24    25   ar
    13    25    26   ar
    14    26    27   ar
    15    27    28   ar
    16    28    29    1
    17    29    30    1
    18     2     1    1
    19     2     3    1
    20     3     4    1
    21     4     5    1
    22     5     6    1
    23     6     7   ar
    24     7     8   ar
    25     8     9   ar
    26     9    10   ar
    27    10    11   ar
    28    15    13    1
    29    30    21    1
    30    11     2    1
    31    28    23   ar
    32    11     6   ar
    33    16    18    1
    34    16    19    1
    35    30    31    1
@<TRIPOS>MOLECULE
*****
 31 35 0 0 0
SMALL
GASTEIGER

@<TRIPOS>ATOM
      1 N          63.4720   90.6849   11.6210 N.3     1  UNL1       -0.2679
      2 C          64.5090   91.7653   11.7068 C.3     1  UNL1        0.0978
      3 C          64.9352   92.4959   10.4681 C.3     1  UNL1        0.0224
      4 C          65.9722   93.5764   10.5539 C.3     1  UNL1        0.0065
      5 C          66.5829   93.9262   11.8785 C.3     1  UNL1        0.0277
      6 C          66.1567   93.1956   13.1172 C.ar    1  UNL1       -0.0073
      7 C          66.7674   93.5454   14.4419 C.ar    1  UNL1       -0.0015
      8 C          66.3412   92.8148   15.6806 C.ar    1  UNL1        0.0203
      9 C          65.3042   91.7344   15.5948 C.ar    1  UNL1        0.0985
     10 N          64.6935   91.3845   14.2702 N.ar    1  UNL1       -0.2471
     11 C          65.1197   92.1152   13.0314 C.ar    1  UNL1        0.0695
     12 C          62.9223   90.2773   10.2862 C.3     1  UNL1        0.0724
     13 C          60.1006   89.8068   10.7488 C.3     1  UNL1        0.0169
     14 C          60.3140   89.4916    9.2979 C.3     1  UNL1        0.0028
     15 C          61.4673   89.9407   10.1453 C.3     1  UNL1        0.0174
     16 N          58.8982   88.6979   12.7673 N.3     1  UNL1       -0.3211
     17 C          59.1884   89.9115   11.9349 C.3     1  UNL1        0.0651
     18 H          58.2645   88.9495   13.5259 H       1  UNL1        0.1189
     19 H          59.7689   88.3369   13.1572 H       1  UNL1        0.1189
     20 C          62.9847   90.0121   12.8699 C.3     1  UNL1        0.0886
     21 C          63.2977   88.5655   13.1134 C.3     1  UNL1        0.0748
     22 C          62.7935   87.5189   12.1644 C.3     1  UNL1        0.0432
     23 C          63.1065   86.0723   12.4080 C.ar    1  UNL1       -0.0234
     24 C          62.6023   85.0258   11.4590 C.ar    1  UNL1       -0.0045
     25 C          62.9153   83.5791   11.7026 C.ar    1  UNL1       -0.0003
     26 C          63.7324   83.1790   12.8951 C.ar    1  UNL1       -0.0003
     27 C          64.2366   84.2256   13.8441 C.ar    1  UNL1       -0.0032
     28 C          63.9236   85.6722   13.6006 C.ar    1  UNL1       -0.0103
     29 C          64.4278   86.7187   14.5495 C.3     1  UNL1        0.0953
     30 N          64.1148   88.1653   14.3059 N.3     1  UNL1       -0.2934
     31 H          65.0085   88.6507   14.2268 H       1  UNL1        0.1236
@<TRIPOS>BOND
     1    16    17    1
     2    17    13    1
     3    13    14    1
     4    14    15    1
     5    15    12    1
     6    12     1    1
     7     1    20    1
     8    21    20    1
     9    21    22    1
    10    22    23    1
    11    23    24   ar
    12    24    25   ar
    13    25    26   ar
    14    26    27   ar
    15    27    28   ar
    16    28    29    1
    17    29    30    1
    18     2     1    1
    19     2     3    1
    20     3     4    1
    21     4     5    1
    22     5     6    1
    23     6     7   ar
    24     7     8   ar
    25     8     9   ar
    26     9    10   ar
    27    10    11   ar
    28    15    13    1
    29    30    21    1
    30    11     2    1
    31    28    23   ar
    32    11     6   ar
    33    16    18    1
    34    16    19    1
    35    30    31    1
@<TRIPOS>MOLECULE
*****
 31 35 0 0 0
SMALL
GASTEIGER

@<TRIPOS>ATOM
      1 N          63.5289   88.7780   13.5730 N.3     1  UNL1       -0.2679
      2 C          62.9638   89.0788   12.2165 C.3     1  UNL1        0.0978
      3 C          62.9520   90.4887   11.7047 C.3     1  UNL1        0.0224
      4 C          62.3870   90.7895   10.3482 C.3     1  UNL1        0.0065
      5 C          61.8338   89.6804    9.5034 C.3     1  UNL1        0.0277
      6 C          61.8456   88.2705   10.0151 C.ar    1  UNL1       -0.0073
      7 C          61.2923   87.1613    9.1703 C.ar    1  UNL1       -0.0015
      8 C          61.3041   85.7514    9.6820 C.ar    1  UNL1        0.0203
      9 C          61.8692   85.4505   11.0386 C.ar    1  UNL1        0.0985
     10 N          62.4224   86.5596   11.8834 N.ar    1  UNL1       -0.2471
     11 C          62.4106   87.9697   11.3716 C.ar    1  UNL1        0.0695
     12 C          64.3271   87.5271   13.7925 C.3     1  UNL1        0.0724
     13 C          63.7972   85.1936   15.4268 C.3     1  UNL1        0.0169
     14 C          63.4967   86.3652   16.3140 C.3     1  UNL1        0.0028
     15 C          63.9626   86.5905   14.9061 C.3     1  UNL1        0.0174
     16 N          62.6771   82.8501   15.4877 N.3     1  UNL1       -0.3211
     17 C          63.8752   83.7106   15.2153 C.3     1  UNL1        0.0651
     18 H          62.9068   81.8758   15.2920 H       1  UNL1        0.1189
     19 H          61.9045   83.1440   14.8901 H       1  UNL1        0.1189
     20 C          63.2957   89.7280   14.7101 C.3     1  UNL1        0.0886
     21 C          64.3756   90.6841   15.1221 C.3     1  UNL1        0.0748
     22 C          65.6846   90.6979   14.3896 C.3     1  UNL1        0.0432
     23 C          66.7645   91.6540   14.8015 C.ar    1  UNL1       -0.0234
     24 C          68.0734   91.6679   14.0691 C.ar    1  UNL1       -0.0045
     25 C          69.1533   92.6240   14.4811 C.ar    1  UNL1       -0.0003
     26 C          68.9242   93.5663   15.6255 C.ar    1  UNL1       -0.0003
     27 C          67.6152   93.5524   16.3580 C.ar    1  UNL1       -0.0032
     28 C          66.5354   92.5963   15.9460 C.ar    1  UNL1       -0.0103
     29 C          65.2264   92.5825   16.6784 C.3     1  UNL1        0.0953
     30 N          64.1466   91.6263   16.2665 N.3     1  UNL1       -0.2934
     31 H          63.3309   92.1894   16.0255 H       1  UNL1        0.1236
@<TRIPOS>BOND
     1    16    17    1
     2    17    13    1
     3    13    14    1
     4    14    15    1
     5    15    12    1
     6    12     1    1
     7     1    20    1
     8    21    20    1
     9    21    22    1
    10    22    23    1
    11    23    24   ar
    12    24    25   ar
    13    25    26   ar
    14    26    27   ar
    15    27    28   ar
    16    28    29    1
    17    29    30    1
    18     2     1    1
    19     2     3    1
    20     3     4    1
    21     4     5    1
    22     5     6    1
    23     6     7   ar
    24     7     8   ar
    25     8     9   ar
    26     9    10   ar
    27    10    11   ar
    28    15    13    1
    29    30    21    1
    30    11     2    1
    31    28    23   ar
    32    11     6   ar
    33    16    18    1
    34    16    19    1
    35    30    31    1
@<TRIPOS>MOLECULE
*****
 31 35 0 0 0
SMALL
GASTEIGER

@<TRIPOS>ATOM
      1 N          63.1614   88.9957   12.9708 N.3     1  UNL1       -0.2679
      2 C          63.6029   87.6453   13.4520 C.3     1  UNL1        0.0978
      3 C          64.4420   87.5276   14.6897 C.3     1  UNL1        0.0224
      4 C          64.8835   86.1772   15.1709 C.3     1  UNL1        0.0065
      5 C          64.4860   84.9445   14.4143 C.3     1  UNL1        0.0277
      6 C          63.6469   85.0622   13.1766 C.ar    1  UNL1       -0.0073
      7 C          63.2493   83.8295   12.4200 C.ar    1  UNL1       -0.0015
      8 C          62.4102   83.9472   11.1822 C.ar    1  UNL1        0.0203
      9 C          61.9687   85.2976   10.7011 C.ar    1  UNL1        0.0985
     10 N          62.3662   86.5302   11.4576 N.ar    1  UNL1       -0.2471
     11 C          63.2054   86.4126   12.6954 C.ar    1  UNL1        0.0695
     12 C          62.9873   89.2487   11.5026 C.3     1  UNL1        0.0724
     13 C          60.5638   89.4491    9.9265 C.3     1  UNL1        0.0169
     14 C          60.3761   90.4220   11.0526 C.3     1  UNL1        0.0028
     15 C          61.6382   89.6168   10.9597 C.3     1  UNL1        0.0174
     16 N          59.7925   89.6105    7.4509 N.3     1  UNL1       -0.3211
     17 C          60.0519   88.7906    8.6798 C.3     1  UNL1        0.0651
     18 H          59.4508   89.0053    6.7043 H       1  UNL1        0.1189
     19 H          60.6581   90.0611    7.1539 H       1  UNL1        0.1189
     20 C          62.8939   90.0930   13.9578 C.3     1  UNL1        0.0886
     21 C          64.0371   90.8532   14.5622 C.3     1  UNL1        0.0748
     22 C          65.3493   90.9342   13.8398 C.3     1  UNL1        0.0432
     23 C          66.4924   91.6943   14.4443 C.ar    1  UNL1       -0.0234
     24 C          67.8046   91.7754   13.7220 C.ar    1  UNL1       -0.0045
     25 C          68.9477   92.5355   14.3264 C.ar    1  UNL1       -0.0003
     26 C          68.7788   93.2146   15.6531 C.ar    1  UNL1       -0.0003
     27 C          67.4666   93.1336   16.3755 C.ar    1  UNL1       -0.0032
     28 C          66.3235   92.3734   15.7711 C.ar    1  UNL1       -0.0103
     29 C          65.0114   92.2924   16.4934 C.3     1  UNL1        0.0953
     30 N          63.8682   91.5322   15.8889 N.3     1  UNL1       -0.2934
     31 H          63.0974   92.1923   15.7858 H       1  UNL1        0.1236
@<TRIPOS>BOND
     1    16    17    1
     2    17    13    1
     3    13    14    1
     4    14    15    1
     5    15    12    1
     6    12     1    1
     7     1    20    1
     8    21    20    1
     9    21    22    1
    10    22    23    1
    11    23    24   ar
    12    24    25   ar
    13    25    26   ar
    14    26    27   ar
    15    27    28   ar
    16    28    29    1
    17    29    30    1
    18     2     1    1
    19     2     3    1
    20     3     4    1
    21     4     5    1
    22     5     6    1
    23     6     7   ar
    24     7     8   ar
    25     8     9   ar
    26     9    10   ar
    27    10    11   ar
    28    15    13    1
    29    30    21    1
    30    11     2    1
    31    28    23   ar
    32    11     6   ar
    33    16    18    1
    34    16    19    1
    35    30    31    1
