@<TRIPOS>MOLECULE
*****
 57 60 0 0 0
SMALL
GASTEIGER

@<TRIPOS>ATOM
      1 C          62.4766   85.9001   11.1149 C.3     1  UNL1        0.1445
      2 O          62.7874   85.2878    9.7813 O.3     1  UNL1       -0.3813
      3 H          63.3475   84.5059    9.9072 H       1  UNL1        0.2105
      4 C          63.0216   85.2831   12.3688 C.3     1  UNL1        0.1041
      5 N          62.7532   85.9241   13.6981 N.am    1  UNL1       -0.3019
      6 C          63.8868   86.1969   14.6417 C.2     1  UNL1        0.2405
      7 O          65.2888   85.8287   14.2561 O.2     1  UNL1       -0.2733
      8 H          61.8330   86.1658   13.9512 H       1  UNL1        0.1495
      9 C          63.6184   86.8380   15.9710 C.3     1  UNL1        0.1510
     10 N          64.0877   88.2375   16.2372 N.am    1  UNL1       -0.2640
     11 C          63.0890   89.3425   16.4149 C.2     1  UNL1        0.4023
     12 O          61.6209   89.0479   16.3266 O.2     1  UNL1       -0.2264
     13 H          65.0513   88.4309   16.2952 H       1  UNL1        0.1532
     14 O          63.5584   90.7421   16.6811 O.3     1  UNL1       -0.4280
     15 C          64.0671   91.5898   15.5530 C.3     1  UNL1        0.2561
     16 C          65.5319   91.8941   15.4450 C.ar    1  UNL1        0.1094
     17 C          66.5276   91.1490   14.6063 C.ar    1  UNL1        0.0549
     18 S          67.8693   91.7912   14.7996 S.2     1  UNL1       -0.0705
     19 C          67.7028   92.9333   15.7578 C.ar    1  UNL1        0.0884
     20 C          68.7900   93.8507   16.2336 C.3     1  UNL1        0.0594
     21 N          66.2582   92.9968   16.1566 N.ar    1  UNL1       -0.2433
     22 C          62.8806   86.0795   17.0342 C.3     1  UNL1        0.0270
     23 C          62.7370   86.6626   18.4087 C.3     1  UNL1        0.0022
     24 C          62.2865   84.7377   16.7228 C.3     1  UNL1        0.0022
     25 C          63.8350   84.0250   12.2934 C.3     1  UNL1        0.0484
     26 C          63.2114   82.7066   12.6437 C.ar    1  UNL1       -0.0204
     27 C          62.5269   82.5286   13.9665 C.ar    1  UNL1       -0.0042
     28 C          61.9032   81.2101   14.3168 C.ar    1  UNL1       -0.0003
     29 C          61.9642   80.0696   13.3444 C.ar    1  UNL1       -0.0000
     30 C          62.6488   80.2476   12.0216 C.ar    1  UNL1       -0.0003
     31 C          63.2724   81.5661   11.6713 C.ar    1  UNL1       -0.0042
     32 C          61.6208   87.1293   11.1946 C.3     1  UNL1        0.1038
     33 N          59.2372   88.4477    7.6125 N.3     1  UNL1       -0.2661
     34 C          59.2956   86.9948    7.9812 C.3     1  UNL1        0.0899
     35 C          60.0901   86.5554    9.1752 C.3     1  UNL1        0.0901
     36 N          60.8262   87.5688   10.0006 N.3     1  UNL1       -0.2620
     37 C          60.7679   89.0216    9.6319 C.3     1  UNL1        0.1510
     38 C          59.9733   89.4611    8.4379 C.3     1  UNL1        0.0980
     39 C          61.5040   90.0350   10.4573 C.2     1  UNL1        0.2383
     40 O          60.7420   90.9888   11.3287 O.2     1  UNL1       -0.2736
     41 N          63.0021   90.0945   10.4111 N.am    1  UNL1       -0.3063
     42 H          63.5022   89.4685    9.8391 H       1  UNL1        0.1493
     43 C          63.7382   91.1079   11.2364 C.3     1  UNL1        0.0569
     44 C          63.8232   92.0160   10.0456 C.3     1  UNL1        0.0196
     45 C          63.6532   90.1998   12.4273 C.3     1  UNL1        0.0196
     46 C          64.4743   92.1213   12.0618 C.3     1  UNL1        0.0196
     47 C          58.4427   88.8871    6.4185 C.3     1  UNL1        0.0993
     48 C          59.7174   92.5131    4.0781 C.ar    1  UNL1        0.1724
     49 C          58.2749   92.3257    4.4442 C.ar    1  UNL1        0.0398
     50 C          57.8500   91.1170    5.2243 C.ar    1  UNL1        0.0004
     51 C          58.8676   90.0958    5.6384 C.ar    1  UNL1       -0.0029
     52 C          60.3101   90.2832    5.2724 C.ar    1  UNL1        0.0371
     53 C          60.7350   91.4919    4.4922 C.ar    1  UNL1        0.1721
     54 C          60.1020   93.6990    1.7988 C.3     1  UNL1        0.2526
     55 O          60.1422   93.7218    3.2980 O.3     1  UNL1       -0.4684
     56 O          62.1776   91.6793    4.1262 O.3     1  UNL1       -0.4684
     57 C          62.6747   91.2326    2.7833 C.3     1  UNL1        0.2526
@<TRIPOS>BOND
     1    54    55    1
     2    55    48    1
     3    48    49   ar
     4    49    50   ar
     5    50    51   ar
     6    51    47    1
     7    47    33    1
     8    33    34    1
     9    34    35    1
    10    35    36    1
    11    36    32    1
    12    32     1    1
    13     1     2    1
    14     1     4    1
    15     4    25    1
    16    25    26    1
    17    26    27   ar
    18    27    28   ar
    19    28    29   ar
    20    29    30   ar
    21    30    31   ar
    22     4     5    1
    23     5     6   am
    24     6     7    2
    25     6     9    1
    26     9    10    1
    27    10    11   am
    28    11    12    2
    29    11    14    1
    30    14    15    1
    31    15    16    1
    32    16    17   ar
    33    17    18   ar
    34    18    19   ar
    35    19    20    1
    36    19    21   ar
    37     9    22    1
    38    22    23    1
    39    22    24    1
    40    36    37    1
    41    37    39    1
    42    39    40    2
    43    39    41   am
    44    41    43    1
    45    43    44    1
    46    43    45    1
    47    43    46    1
    48    37    38    1
    49    51    52   ar
    50    52    53   ar
    51    53    56    1
    52    56    57    1
    53    53    48   ar
    54    38    33    1
    55    31    26   ar
    56    21    16   ar
    57     2     3    1
    58     5     8    1
    59    10    13    1
    60    41    42    1
@<TRIPOS>MOLECULE
*****
 57 60 0 0 0
SMALL
GASTEIGER

@<TRIPOS>ATOM
      1 C          63.0150   90.3141   12.4046 C.3     1  UNL1        0.1445
      2 O          63.4146   91.2559   11.3076 O.3     1  UNL1       -0.3813
      3 H          64.1676   91.7926   11.6006 H       1  UNL1        0.2105
      4 C          63.7624   90.3172   13.7051 C.3     1  UNL1        0.1041
      5 N          64.0682   89.0222   14.3975 N.am    1  UNL1       -0.3019
      6 C          63.1996   88.5518   15.5263 C.2     1  UNL1        0.2405
      7 O          62.0251   89.3764   15.9626 O.2     1  UNL1       -0.2733
      8 H          64.8392   88.4810   14.1111 H       1  UNL1        0.1495
      9 C          63.5055   87.2568   16.2187 C.3     1  UNL1        0.1510
     10 N          64.4581   86.2800   15.5956 N.am    1  UNL1       -0.2640
     11 C          63.9420   85.2065   14.6839 C.2     1  UNL1        0.4023
     12 O          62.4733   85.1099   14.3951 O.2     1  UNL1       -0.2264
     13 H          65.4221   86.3434   15.7851 H       1  UNL1        0.1532
     14 O          64.8948   84.2296   14.0609 O.3     1  UNL1       -0.4280
     15 C          64.8752   82.7902   14.4823 C.3     1  UNL1        0.2561
     16 C          63.7327   81.9060   14.0788 C.ar    1  UNL1        0.1094
     17 C          63.7810   80.8190   13.0464 C.ar    1  UNL1        0.0549
     18 S          62.4194   80.1948   12.9664 S.2     1  UNL1       -0.0705
     19 C          61.5295   80.8961   13.9496 C.ar    1  UNL1        0.0884
     20 C          60.0821   80.5930   14.2010 C.3     1  UNL1        0.0594
     21 N          62.3412   81.9537   14.6370 N.ar    1  UNL1       -0.2433
     22 C          62.8587   86.9387   17.5341 C.3     1  UNL1        0.0270
     23 C          63.0362   87.8648   18.7006 C.3     1  UNL1        0.0022
     24 C          62.0343   85.6943   17.6830 C.3     1  UNL1        0.0022
     25 C          64.2039   91.6154   14.3133 C.3     1  UNL1        0.0484
     26 C          65.6642   91.8882   14.5208 C.ar    1  UNL1       -0.0204
     27 C          66.1545   92.3749   15.8521 C.ar    1  UNL1       -0.0042
     28 C          67.6148   92.6477   16.0597 C.ar    1  UNL1       -0.0003
     29 C          68.5849   92.4337   14.9357 C.ar    1  UNL1       -0.0000
     30 C          68.0945   91.9469   13.6043 C.ar    1  UNL1       -0.0003
     31 C          66.6343   91.6741   13.3968 C.ar    1  UNL1       -0.0042
     32 C          61.8681   89.3691   12.2010 C.3     1  UNL1        0.1038
     33 N          59.8542   89.1069    8.1853 N.3     1  UNL1       -0.2661
     34 C          59.7018   90.3429    9.0215 C.3     1  UNL1        0.0899
     35 C          60.3730   90.4302   10.3601 C.3     1  UNL1        0.0901
     36 N          61.1968   89.2817   10.8624 N.3     1  UNL1       -0.2620
     37 C          61.3492   88.0458   10.0262 C.3     1  UNL1        0.1510
     38 C          60.6780   87.9584    8.6876 C.3     1  UNL1        0.0980
     39 C          62.1730   86.8973   10.5285 C.2     1  UNL1        0.2383
     40 O          62.9920   87.0506   11.7757 O.2     1  UNL1       -0.2736
     41 N          62.1777   85.5953    9.7835 N.am    1  UNL1       -0.3063
     42 H          61.6401   85.4946    8.9649 H       1  UNL1        0.1493
     43 C          63.0014   84.4468   10.2858 C.3     1  UNL1        0.0569
     44 C          63.8226   84.4870    9.0312 C.3     1  UNL1        0.0196
     45 C          62.1803   84.4065   11.5405 C.3     1  UNL1        0.0196
     46 C          63.8252   83.2982   10.7881 C.3     1  UNL1        0.0196
     47 C          59.1829   89.0196    6.8467 C.3     1  UNL1        0.0993
     48 C          59.5892   92.3973    3.9012 C.ar    1  UNL1        0.1724
     49 C          58.2450   92.0603    4.4752 C.ar    1  UNL1        0.0398
     50 C          58.1096   90.9344    5.4570 C.ar    1  UNL1        0.0004
     51 C          59.3183   90.1455    5.8649 C.ar    1  UNL1       -0.0029
     52 C          60.6625   90.4824    5.2909 C.ar    1  UNL1        0.0371
     53 C          60.7980   91.6083    4.3090 C.ar    1  UNL1        0.1721
     54 C          59.7469   93.2359    1.4473 C.3     1  UNL1        0.2526
     55 O          59.7246   93.5231    2.9193 O.3     1  UNL1       -0.4684
     56 O          62.1423   91.9453    3.7350 O.3     1  UNL1       -0.4684
     57 C          63.0767   90.8480    3.3194 C.3     1  UNL1        0.2526
@<TRIPOS>BOND
     1    54    55    1
     2    55    48    1
     3    48    49   ar
     4    49    50   ar
     5    50    51   ar
     6    51    47    1
     7    47    33    1
     8    33    34    1
     9    34    35    1
    10    35    36    1
    11    36    32    1
    12    32     1    1
    13     1     2    1
    14     1     4    1
    15     4    25    1
    16    25    26    1
    17    26    27   ar
    18    27    28   ar
    19    28    29   ar
    20    29    30   ar
    21    30    31   ar
    22     4     5    1
    23     5     6   am
    24     6     7    2
    25     6     9    1
    26     9    10    1
    27    10    11   am
    28    11    12    2
    29    11    14    1
    30    14    15    1
    31    15    16    1
    32    16    17   ar
    33    17    18   ar
    34    18    19   ar
    35    19    20    1
    36    19    21   ar
    37     9    22    1
    38    22    23    1
    39    22    24    1
    40    36    37    1
    41    37    39    1
    42    39    40    2
    43    39    41   am
    44    41    43    1
    45    43    44    1
    46    43    45    1
    47    43    46    1
    48    37    38    1
    49    51    52   ar
    50    52    53   ar
    51    53    56    1
    52    56    57    1
    53    53    48   ar
    54    38    33    1
    55    31    26   ar
    56    21    16   ar
    57     2     3    1
    58     5     8    1
    59    10    13    1
    60    41    42    1
@<TRIPOS>MOLECULE
*****
 57 60 0 0 0
SMALL
GASTEIGER

@<TRIPOS>ATOM
      1 C          60.8106   89.3998   12.1319 C.3     1  UNL1        0.1445
      2 O          60.1711   90.7426   11.9372 O.3     1  UNL1       -0.3813
      3 H          59.4390   90.6636   11.3058 H       1  UNL1        0.2105
      4 C          60.2864   88.2050   11.3920 C.3     1  UNL1        0.1041
      5 N          60.9578   86.8727   11.5473 N.am    1  UNL1       -0.3019
      6 C          62.0546   86.4713   10.6060 C.2     1  UNL1        0.2405
      7 O          62.4799   87.4023    9.5095 O.2     1  UNL1       -0.2733
      8 H          60.6786   86.2617   12.2670 H       1  UNL1        0.1495
      9 C          62.7260   85.1390   10.7613 C.3     1  UNL1        0.1510
     10 N          62.8179   84.4987   12.1146 N.am    1  UNL1       -0.2640
     11 C          63.3234   85.2886   13.2853 C.2     1  UNL1        0.4023
     12 O          63.7369   86.7188   13.1027 O.2     1  UNL1       -0.2264
     13 H          62.5465   83.5599   12.2344 H       1  UNL1        0.1532
     14 O          63.4154   84.6481   14.6386 O.3     1  UNL1       -0.4280
     15 C          63.8676   83.2235   14.7650 C.3     1  UNL1        0.2561
     16 C          62.9563   82.1076   14.3477 C.ar    1  UNL1        0.1094
     17 C          63.3338   80.9338   13.4934 C.ar    1  UNL1        0.0549
     18 S          62.1184   80.0702   13.3291 S.2     1  UNL1       -0.0705
     19 C          60.9897   80.7103   14.0818 C.ar    1  UNL1        0.0884
     20 C          59.5891   80.1837   14.1865 C.3     1  UNL1        0.0594
     21 N          61.5076   81.9694   14.7113 N.ar    1  UNL1       -0.2433
     22 C          63.3054   84.4470    9.5632 C.3     1  UNL1        0.0270
     23 C          64.2377   83.2862    9.7456 C.3     1  UNL1        0.0022
     24 C          62.9526   84.9159    8.1827 C.3     1  UNL1        0.0022
     25 C          59.0907   88.3425   10.4968 C.3     1  UNL1        0.0484
     26 C          59.2687   88.3785    9.0078 C.ar    1  UNL1       -0.0204
     27 C          59.1785   87.1109    8.2109 C.ar    1  UNL1       -0.0042
     28 C          59.3565   87.1468    6.7219 C.ar    1  UNL1       -0.0003
     29 C          59.6248   88.4504    6.0299 C.ar    1  UNL1       -0.0000
     30 C          59.7150   89.7180    6.8269 C.ar    1  UNL1       -0.0003
     31 C          59.5369   89.6820    8.3158 C.ar    1  UNL1       -0.0042
     32 C          61.9744   89.2519   13.0666 C.3     1  UNL1        0.1038
     33 N          65.2431   92.3447   13.0972 N.3     1  UNL1       -0.2661
     34 C          64.4662   92.0868   11.8402 C.3     1  UNL1        0.0899
     35 C          63.3767   91.0559   11.8300 C.3     1  UNL1        0.0901
     36 N          63.0640   90.2828   13.0768 N.3     1  UNL1       -0.2620
     37 C          63.8408   90.5407   14.3338 C.3     1  UNL1        0.1510
     38 C          64.9303   91.5717   14.3440 C.3     1  UNL1        0.0980
     39 C          63.5280   89.7676   15.5806 C.2     1  UNL1        0.2383
     40 O          63.2881   90.4921   16.8719 O.2     1  UNL1       -0.2736
     41 N          63.4553   88.2700   15.5361 N.am    1  UNL1       -0.3063
     42 H          63.6128   87.7945   14.6886 H       1  UNL1        0.1493
     43 C          63.1426   87.4969   16.7829 C.3     1  UNL1        0.0569
     44 C          62.0428   88.4642   17.1068 C.3     1  UNL1        0.0196
     45 C          64.2423   86.5297   16.4591 C.3     1  UNL1        0.0196
     46 C          62.8299   86.7239   18.0298 C.3     1  UNL1        0.0196
     47 C          66.3326   93.3756   13.1074 C.3     1  UNL1        0.0993
     48 C          67.1399   95.8326    9.4248 C.ar    1  UNL1        0.1724
     49 C          66.4174   96.4420   10.5894 C.ar    1  UNL1        0.0398
     50 C          66.1483   95.6230   11.8170 C.ar    1  UNL1        0.0004
     51 C          66.6017   94.1946   11.8798 C.ar    1  UNL1       -0.0029
     52 C          67.3242   93.5852   10.7152 C.ar    1  UNL1        0.0371
     53 C          67.5933   94.4042    9.4876 C.ar    1  UNL1        0.1721
     54 C          66.3263   96.8551    7.1792 C.3     1  UNL1        0.2526
     55 O          67.4090   96.6515    8.1972 O.3     1  UNL1       -0.4684
     56 O          68.3159   93.7946    8.3229 O.3     1  UNL1       -0.4684
     57 C          68.7697   92.3664    8.3860 C.3     1  UNL1        0.2526
@<TRIPOS>BOND
     1    54    55    1
     2    55    48    1
     3    48    49   ar
     4    49    50   ar
     5    50    51   ar
     6    51    47    1
     7    47    33    1
     8    33    34    1
     9    34    35    1
    10    35    36    1
    11    36    32    1
    12    32     1    1
    13     1     2    1
    14     1     4    1
    15     4    25    1
    16    25    26    1
    17    26    27   ar
    18    27    28   ar
    19    28    29   ar
    20    29    30   ar
    21    30    31   ar
    22     4     5    1
    23     5     6   am
    24     6     7    2
    25     6     9    1
    26     9    10    1
    27    10    11   am
    28    11    12    2
    29    11    14    1
    30    14    15    1
    31    15    16    1
    32    16    17   ar
    33    17    18   ar
    34    18    19   ar
    35    19    20    1
    36    19    21   ar
    37     9    22    1
    38    22    23    1
    39    22    24    1
    40    36    37    1
    41    37    39    1
    42    39    40    2
    43    39    41   am
    44    41    43    1
    45    43    44    1
    46    43    45    1
    47    43    46    1
    48    37    38    1
    49    51    52   ar
    50    52    53   ar
    51    53    56    1
    52    56    57    1
    53    53    48   ar
    54    38    33    1
    55    31    26   ar
    56    21    16   ar
    57     2     3    1
    58     5     8    1
    59    10    13    1
    60    41    42    1
@<TRIPOS>MOLECULE
*****
 57 60 0 0 0
SMALL
GASTEIGER

@<TRIPOS>ATOM
      1 C          62.5908   85.7192   11.3261 C.3     1  UNL1        0.1445
      2 O          62.8629   84.8811   10.1122 O.3     1  UNL1       -0.3813
      3 H          63.3731   84.0969   10.3685 H       1  UNL1        0.2105
      4 C          63.0961   85.2810   12.6687 C.3     1  UNL1        0.1041
      5 N          62.7991   86.1041   13.8870 N.am    1  UNL1       -0.3019
      6 C          63.8995   86.4467   14.8472 C.2     1  UNL1        0.2405
      7 O          65.2967   85.9662   14.5890 O.2     1  UNL1       -0.2733
      8 H          61.8820   86.4195   14.0565 H       1  UNL1        0.1495
      9 C          63.6025   87.2698   16.0655 C.3     1  UNL1        0.1510
     10 N          63.9834   88.7202   16.1018 N.am    1  UNL1       -0.2640
     11 C          62.9469   89.7744   15.8482 C.2     1  UNL1        0.4023
     12 O          61.5296   89.3783   15.5582 O.2     1  UNL1       -0.2264
     13 H          64.9137   88.9802   16.2922 H       1  UNL1        0.1532
     14 O          63.3279   91.2248   15.8845 O.3     1  UNL1       -0.4280
     15 C          64.4550   91.6824   16.7621 C.3     1  UNL1        0.2561
     16 C          65.7754   92.0533   16.1547 C.ar    1  UNL1        0.1094
     17 C          66.4146   91.3976   14.9667 C.ar    1  UNL1        0.0549
     18 S          67.7227   92.0841   14.7064 S.2     1  UNL1       -0.0705
     19 C          67.8919   93.1641   15.7336 C.ar    1  UNL1        0.0884
     20 C          69.0596   94.0989   15.8460 C.3     1  UNL1        0.0594
     21 N          66.6884   93.1450   16.6287 N.ar    1  UNL1       -0.2433
     22 C          62.9247   86.6426   17.2475 C.3     1  UNL1        0.0270
     23 C          62.7911   87.4096   18.5296 C.3     1  UNL1        0.0022
     24 C          62.3805   85.2484   17.1473 C.3     1  UNL1        0.0022
     25 C          63.8983   84.0196   12.7931 C.3     1  UNL1        0.0484
     26 C          63.2036   82.7058   12.9955 C.ar    1  UNL1       -0.0204
     27 C          62.3020   82.5085   14.1780 C.ar    1  UNL1       -0.0042
     28 C          61.6072   81.1946   14.3805 C.ar    1  UNL1       -0.0003
     29 C          61.8139   80.0780   13.4004 C.ar    1  UNL1       -0.0000
     30 C          62.7155   80.2753   12.2179 C.ar    1  UNL1       -0.0003
     31 C          63.4103   81.5892   12.0155 C.ar    1  UNL1       -0.0042
     32 C          61.8133   86.9955   11.1974 C.3     1  UNL1        0.1038
     33 N          63.7504   90.9240   12.2296 N.3     1  UNL1       -0.2661
     34 C          64.2525   89.6541   12.8505 C.3     1  UNL1        0.0899
     35 C          63.6068   88.3446   12.5064 C.3     1  UNL1        0.0901
     36 N          62.4590   88.3050   11.5415 N.3     1  UNL1       -0.2620
     37 C          61.9570   89.5748   10.9206 C.3     1  UNL1        0.1510
     38 C          62.6027   90.8843   11.2646 C.3     1  UNL1        0.0980
     39 C          60.8092   89.5351    9.9556 C.2     1  UNL1        0.2383
     40 O          59.6651   90.4926   10.1113 O.2     1  UNL1       -0.2736
     41 N          60.8057   88.5380    8.8350 N.am    1  UNL1       -0.3063
     42 H          61.5566   87.9096    8.7328 H       1  UNL1        0.1493
     43 C          59.6579   88.4984    7.8700 C.3     1  UNL1        0.0569
     44 C          59.2536   87.1570    8.4060 C.3     1  UNL1        0.0196
     45 C          60.0622   89.8397    7.3340 C.3     1  UNL1        0.0196
     46 C          58.5102   88.4587    6.9051 C.3     1  UNL1        0.0196
     47 C          64.3961   92.2334   12.5736 C.3     1  UNL1        0.0993
     48 C          67.0739   94.2748    9.5883 C.ar    1  UNL1        0.1724
     49 C          65.7540   94.8868    9.9534 C.ar    1  UNL1        0.0398
     50 C          64.8614   94.2063   10.9485 C.ar    1  UNL1        0.0004
     51 C          65.2887   92.9139   11.5785 C.ar    1  UNL1       -0.0029
     52 C          66.6086   92.3019   11.2134 C.ar    1  UNL1        0.0371
     53 C          67.5012   92.9824   10.2183 C.ar    1  UNL1        0.1721
     54 C          67.6654   96.3566    8.1509 C.3     1  UNL1        0.2526
     55 O          67.9664   94.9553    8.5932 O.3     1  UNL1       -0.4684
     56 O          68.8211   92.3704    9.8532 O.3     1  UNL1       -0.4684
     57 C          69.1003   91.9823    8.4315 C.3     1  UNL1        0.2526
@<TRIPOS>BOND
     1    54    55    1
     2    55    48    1
     3    48    49   ar
     4    49    50   ar
     5    50    51   ar
     6    51    47    1
     7    47    33    1
     8    33    34    1
     9    34    35    1
    10    35    36    1
    11    36    32    1
    12    32     1    1
    13     1     2    1
    14     1     4    1
    15     4    25    1
    16    25    26    1
    17    26    27   ar
    18    27    28   ar
    19    28    29   ar
    20    29    30   ar
    21    30    31   ar
    22     4     5    1
    23     5     6   am
    24     6     7    2
    25     6     9    1
    26     9    10    1
    27    10    11   am
    28    11    12    2
    29    11    14    1
    30    14    15    1
    31    15    16    1
    32    16    17   ar
    33    17    18   ar
    34    18    19   ar
    35    19    20    1
    36    19    21   ar
    37     9    22    1
    38    22    23    1
    39    22    24    1
    40    36    37    1
    41    37    39    1
    42    39    40    2
    43    39    41   am
    44    41    43    1
    45    43    44    1
    46    43    45    1
    47    43    46    1
    48    37    38    1
    49    51    52   ar
    50    52    53   ar
    51    53    56    1
    52    56    57    1
    53    53    48   ar
    54    38    33    1
    55    31    26   ar
    56    21    16   ar
    57     2     3    1
    58     5     8    1
    59    10    13    1
    60    41    42    1
@<TRIPOS>MOLECULE
*****
 57 60 0 0 0
SMALL
GASTEIGER

@<TRIPOS>ATOM
      1 C          62.1294   86.6509   10.6610 C.3     1  UNL1        0.1445
      2 O          63.1497   87.3473    9.8101 O.3     1  UNL1       -0.3813
      3 H          64.0117   86.9165    9.9213 H       1  UNL1        0.2105
      4 C          62.5311   85.4777   11.5048 C.3     1  UNL1        0.1041
      5 N          62.9952   85.6920   12.9150 N.am    1  UNL1       -0.3019
      6 C          63.4895   87.0413   13.3450 C.2     1  UNL1        0.2405
      7 O          63.5199   88.1762   12.3648 O.2     1  UNL1       -0.2733
      8 H          62.9752   84.9470   13.5584 H       1  UNL1        0.1495
      9 C          63.9536   87.2556   14.7553 C.3     1  UNL1        0.1510
     10 N          64.3034   88.6354   15.2282 N.am    1  UNL1       -0.2640
     11 C          63.3510   89.3910   16.1069 C.2     1  UNL1        0.4023
     12 O          62.0489   88.7668   16.5126 O.2     1  UNL1       -0.2264
     13 H          65.1581   89.0451   14.9619 H       1  UNL1        0.1532
     14 O          63.7009   90.7708   16.5799 O.3     1  UNL1       -0.4280
     15 C          64.2064   91.7923   15.6046 C.3     1  UNL1        0.2561
     16 C          65.6775   92.0656   15.4998 C.ar    1  UNL1        0.1094
     17 C          66.6590   91.3004   14.6625 C.ar    1  UNL1        0.0549
     18 S          68.0135   91.9140   14.8591 S.2     1  UNL1       -0.0705
     19 C          67.8692   93.0586   15.8179 C.ar    1  UNL1        0.0884
     20 C          68.9745   93.9525   16.2966 C.3     1  UNL1        0.0594
     21 N          66.4254   93.1523   16.2138 N.ar    1  UNL1       -0.2433
     22 C          64.0678   86.0901   15.6925 C.3     1  UNL1        0.0270
     23 C          63.2061   86.0264   16.9187 C.3     1  UNL1        0.0022
     24 C          65.0437   84.9881   15.4037 C.3     1  UNL1        0.0022
     25 C          62.4689   84.0901   10.9384 C.3     1  UNL1        0.0484
     26 C          62.5134   82.9033   11.8547 C.ar    1  UNL1       -0.0204
     27 C          62.2736   83.0813   13.3246 C.ar    1  UNL1       -0.0042
     28 C          62.3181   81.8945   14.2409 C.ar    1  UNL1       -0.0003
     29 C          62.6023   80.5298   13.6873 C.ar    1  UNL1       -0.0000
     30 C          62.8421   80.3518   12.2172 C.ar    1  UNL1       -0.0003
     31 C          62.7976   81.5385   11.3010 C.ar    1  UNL1       -0.0042
     32 C          60.7072   87.1278   10.6680 C.3     1  UNL1        0.1038
     33 N          59.0940   89.4459    7.1645 N.3     1  UNL1       -0.2661
     34 C          58.8338   87.9726    7.2729 C.3     1  UNL1        0.0899
     35 C          59.3715   87.1999    8.4407 C.3     1  UNL1        0.0901
     36 N          60.1695   87.9005    9.5001 N.3     1  UNL1       -0.2620
     37 C          60.4298   89.3737    9.3918 C.3     1  UNL1        0.1510
     38 C          59.8921   90.1465    8.2239 C.3     1  UNL1        0.0980
     39 C          61.2278   90.0743   10.4512 C.2     1  UNL1        0.2383
     40 O          60.6139   90.3533   11.7910 O.2     1  UNL1       -0.2736
     41 N          62.6398   90.4959   10.1707 N.am    1  UNL1       -0.3063
     42 H          63.0428   90.3128    9.2913 H       1  UNL1        0.1493
     43 C          63.4378   91.1964   11.2301 C.3     1  UNL1        0.0569
     44 C          62.6585   90.4786   12.2919 C.3     1  UNL1        0.0196
     45 C          64.2172   91.9143   10.1684 C.3     1  UNL1        0.0196
     46 C          64.2359   91.8970   12.2895 C.3     1  UNL1        0.0196
     47 C          58.5563   90.2186    5.9967 C.3     1  UNL1        0.0993
     48 C          61.3851   92.2732    3.1635 C.ar    1  UNL1        0.1724
     49 C          61.8926   91.2065    4.0880 C.ar    1  UNL1        0.0398
     50 C          60.9497   90.5217    5.0324 C.ar    1  UNL1        0.0004
     51 C          59.4992   90.9035    5.0523 C.ar    1  UNL1       -0.0029
     52 C          58.9917   91.9701    4.1279 C.ar    1  UNL1        0.0371
     53 C          59.9346   92.6550    3.1835 C.ar    1  UNL1        0.1721
     54 C          63.8044   92.7158    2.3262 C.3     1  UNL1        0.2526
     55 O          62.3280   92.9581    2.2191 O.3     1  UNL1       -0.4684
     56 O          59.4270   93.7217    2.2590 O.3     1  UNL1       -0.4684
     57 C          59.1270   93.3923    0.8267 C.3     1  UNL1        0.2526
@<TRIPOS>BOND
     1    54    55    1
     2    55    48    1
     3    48    49   ar
     4    49    50   ar
     5    50    51   ar
     6    51    47    1
     7    47    33    1
     8    33    34    1
     9    34    35    1
    10    35    36    1
    11    36    32    1
    12    32     1    1
    13     1     2    1
    14     1     4    1
    15     4    25    1
    16    25    26    1
    17    26    27   ar
    18    27    28   ar
    19    28    29   ar
    20    29    30   ar
    21    30    31   ar
    22     4     5    1
    23     5     6   am
    24     6     7    2
    25     6     9    1
    26     9    10    1
    27    10    11   am
    28    11    12    2
    29    11    14    1
    30    14    15    1
    31    15    16    1
    32    16    17   ar
    33    17    18   ar
    34    18    19   ar
    35    19    20    1
    36    19    21   ar
    37     9    22    1
    38    22    23    1
    39    22    24    1
    40    36    37    1
    41    37    39    1
    42    39    40    2
    43    39    41   am
    44    41    43    1
    45    43    44    1
    46    43    45    1
    47    43    46    1
    48    37    38    1
    49    51    52   ar
    50    52    53   ar
    51    53    56    1
    52    56    57    1
    53    53    48   ar
    54    38    33    1
    55    31    26   ar
    56    21    16   ar
    57     2     3    1
    58     5     8    1
    59    10    13    1
    60    41    42    1
@<TRIPOS>MOLECULE
*****
 57 60 0 0 0
SMALL
GASTEIGER

@<TRIPOS>ATOM
      1 C          60.6173   89.0012   12.0964 C.3     1  UNL1        0.1445
      2 O          59.4316   89.8761   11.8159 O.3     1  UNL1       -0.3813
      3 H          58.9995   89.5828   10.9985 H       1  UNL1        0.2105
      4 C          60.9595   87.8793   11.1613 C.3     1  UNL1        0.1041
      5 N          61.1388   86.4882   11.6928 N.am    1  UNL1       -0.3019
      6 C          62.4444   86.0839   12.3109 C.2     1  UNL1        0.2405
      7 O          63.5706   87.0708   12.3973 O.2     1  UNL1       -0.2733
      8 H          60.3995   85.8405   11.6361 H       1  UNL1        0.1495
      9 C          62.6237   84.6928   12.8424 C.3     1  UNL1        0.1510
     10 N          62.6104   83.5235   11.9030 N.am    1  UNL1       -0.2640
     11 C          63.8425   83.1751   11.1216 C.2     1  UNL1        0.4023
     12 O          65.0879   83.9961   11.2796 O.2     1  UNL1       -0.2264
     13 H          61.7930   82.9846   11.7993 H       1  UNL1        0.1532
     14 O          63.8292   82.0058   10.1821 O.3     1  UNL1       -0.4280
     15 C          63.3622   80.6635   10.6620 C.3     1  UNL1        0.2561
     16 C          62.7158   80.5319   12.0091 C.ar    1  UNL1        0.1094
     17 C          63.4298   80.3522   13.3159 C.ar    1  UNL1        0.0549
     18 S          62.3971   80.2661   14.4004 S.2     1  UNL1       -0.0705
     19 C          61.0448   80.3926   13.7638 C.ar    1  UNL1        0.0884
     20 C          59.7269   80.3604   14.4795 C.3     1  UNL1        0.0594
     21 N          61.2417   80.5568   12.2859 N.ar    1  UNL1       -0.2433
     22 C          62.8162   84.4709   14.3133 C.3     1  UNL1        0.0270
     23 C          64.1852   84.1850   14.8558 C.3     1  UNL1        0.0022
     24 C          61.6398   84.5349   15.2418 C.3     1  UNL1        0.0022
     25 C          61.1223   88.1486    9.6947 C.3     1  UNL1        0.0484
     26 C          61.3361   87.0098    8.7422 C.ar    1  UNL1       -0.0204
     27 C          60.2317   86.5860    7.8199 C.ar    1  UNL1       -0.0042
     28 C          60.4454   85.4471    6.8674 C.ar    1  UNL1       -0.0003
     29 C          61.7636   84.7319    6.8372 C.ar    1  UNL1       -0.0000
     30 C          62.8680   85.1557    7.7596 C.ar    1  UNL1       -0.0003
     31 C          62.6543   86.2946    8.7120 C.ar    1  UNL1       -0.0042
     32 C          61.4608   89.2481   13.3119 C.3     1  UNL1        0.1038
     33 N          65.1909   91.7450   12.9926 N.3     1  UNL1       -0.2661
     34 C          64.2481   91.6530   11.8295 C.3     1  UNL1        0.0899
     35 C          63.0048   90.8207   11.9360 C.3     1  UNL1        0.0901
     36 N          62.7042   90.0804   13.2055 N.3     1  UNL1       -0.2620
     37 C          63.6469   90.1724   14.3685 C.3     1  UNL1        0.1510
     38 C          64.8903   91.0047   14.2621 C.3     1  UNL1        0.0980
     39 C          63.3463   89.4321   15.6380 C.2     1  UNL1        0.2383
     40 O          63.0796   90.1914   16.9038 O.2     1  UNL1       -0.2736
     41 N          63.3124   87.9324   15.6416 N.am    1  UNL1       -0.3063
     42 H          63.4875   87.4341   14.8108 H       1  UNL1        0.1493
     43 C          63.0118   87.1921   16.9111 C.3     1  UNL1        0.0569
     44 C          61.6997   87.9109   17.0196 C.3     1  UNL1        0.0196
     45 C          64.3239   86.4734   16.8027 C.3     1  UNL1        0.0196
     46 C          62.7112   86.4519   18.1806 C.3     1  UNL1        0.0196
     47 C          66.4343   92.5773   12.8862 C.3     1  UNL1        0.0993
     48 C          67.0899   95.1922    9.2831 C.ar    1  UNL1        0.1724
     49 C          66.3736   95.7355   10.4837 C.ar    1  UNL1        0.0398
     50 C          66.1551   94.8639   11.6848 C.ar    1  UNL1        0.0004
     51 C          66.6528   93.4489   11.6851 C.ar    1  UNL1       -0.0029
     52 C          67.3691   92.9056   10.4845 C.ar    1  UNL1        0.0371
     53 C          67.5877   93.7772    9.2834 C.ar    1  UNL1        0.1721
     54 C          66.1658   96.8454    7.5046 C.3     1  UNL1        0.2526
     55 O          67.3085   96.0638    8.0820 O.3     1  UNL1       -0.4684
     56 O          68.3040   93.2338    8.0827 O.3     1  UNL1       -0.4684
     57 C          69.0689   91.9475    8.1842 C.3     1  UNL1        0.2526
@<TRIPOS>BOND
     1    54    55    1
     2    55    48    1
     3    48    49   ar
     4    49    50   ar
     5    50    51   ar
     6    51    47    1
     7    47    33    1
     8    33    34    1
     9    34    35    1
    10    35    36    1
    11    36    32    1
    12    32     1    1
    13     1     2    1
    14     1     4    1
    15     4    25    1
    16    25    26    1
    17    26    27   ar
    18    27    28   ar
    19    28    29   ar
    20    29    30   ar
    21    30    31   ar
    22     4     5    1
    23     5     6   am
    24     6     7    2
    25     6     9    1
    26     9    10    1
    27    10    11   am
    28    11    12    2
    29    11    14    1
    30    14    15    1
    31    15    16    1
    32    16    17   ar
    33    17    18   ar
    34    18    19   ar
    35    19    20    1
    36    19    21   ar
    37     9    22    1
    38    22    23    1
    39    22    24    1
    40    36    37    1
    41    37    39    1
    42    39    40    2
    43    39    41   am
    44    41    43    1
    45    43    44    1
    46    43    45    1
    47    43    46    1
    48    37    38    1
    49    51    52   ar
    50    52    53   ar
    51    53    56    1
    52    56    57    1
    53    53    48   ar
    54    38    33    1
    55    31    26   ar
    56    21    16   ar
    57     2     3    1
    58     5     8    1
    59    10    13    1
    60    41    42    1
@<TRIPOS>MOLECULE
*****
 57 60 0 0 0
SMALL
GASTEIGER

@<TRIPOS>ATOM
      1 C          60.8181   88.7903   12.0794 C.3     1  UNL1        0.1445
      2 O          59.4865   89.3208   11.6373 O.3     1  UNL1       -0.3813
      3 H          59.2160   88.8747   10.8195 H       1  UNL1        0.2105
      4 C          61.5074   87.7290   11.2741 C.3     1  UNL1        0.1041
      5 N          61.8557   86.4146   11.9075 N.am    1  UNL1       -0.3019
      6 C          63.0747   86.2992   12.7739 C.2     1  UNL1        0.2405
      7 O          63.9454   87.4981   13.0070 O.2     1  UNL1       -0.2733
      8 H          61.2842   85.6277   11.7545 H       1  UNL1        0.1495
      9 C          63.4229   84.9848   13.4073 C.3     1  UNL1        0.1510
     10 N          62.4011   83.8885   13.4703 N.am    1  UNL1       -0.2640
     11 C          62.3620   82.9668   14.6530 C.2     1  UNL1        0.4023
     12 O          63.3447   83.1414   15.7728 O.2     1  UNL1       -0.2264
     13 H          61.7562   83.7739   12.7353 H       1  UNL1        0.1532
     14 O          61.3401   81.8705   14.7160 O.3     1  UNL1       -0.4280
     15 C          61.5050   80.6421   13.8711 C.3     1  UNL1        0.2561
     16 C          62.2418   80.7222   12.5670 C.ar    1  UNL1        0.1094
     17 C          62.4506   79.5933   11.6016 C.ar    1  UNL1        0.0549
     18 S          63.2370   80.1186   10.4372 S.2     1  UNL1       -0.0705
     19 C          63.5142   81.5721   10.6831 C.ar    1  UNL1        0.0884
     20 C          64.2732   82.4913    9.7725 C.3     1  UNL1        0.0594
     21 N          62.8992   81.9451   11.9993 N.ar    1  UNL1       -0.2433
     22 C          64.7930   84.7667   13.9776 C.3     1  UNL1        0.0270
     23 C          65.3604   85.7464   14.9616 C.3     1  UNL1        0.0022
     24 C          65.5957   83.5690   13.5639 C.3     1  UNL1        0.0022
     25 C          61.8486   87.9821    9.8355 C.3     1  UNL1        0.0484
     26 C          61.7320   86.8743    8.8310 C.ar    1  UNL1       -0.0204
     27 C          62.9190   86.0089    8.5277 C.ar    1  UNL1       -0.0042
     28 C          62.8025   84.9010    7.5231 C.ar    1  UNL1       -0.0003
     29 C          61.4989   84.6586    6.8218 C.ar    1  UNL1       -0.0000
     30 C          60.3118   85.5241    7.1251 C.ar    1  UNL1       -0.0003
     31 C          60.4284   86.6319    8.1296 C.ar    1  UNL1       -0.0042
     32 C          61.4603   89.3210   13.3266 C.3     1  UNL1        0.1038
     33 N          65.1863   91.8289   13.0468 N.3     1  UNL1       -0.2661
     34 C          64.3106   91.6496   11.8422 C.3     1  UNL1        0.0899
     35 C          63.0686   90.8137   11.9355 C.3     1  UNL1        0.0901
     36 N          62.7023   90.1570   13.2334 N.3     1  UNL1       -0.2620
     37 C          63.5779   90.3362   14.4380 C.3     1  UNL1        0.1510
     38 C          64.8200   91.1722   14.3447 C.3     1  UNL1        0.0980
     39 C          63.2116   89.6795   15.7359 C.2     1  UNL1        0.2383
     40 O          62.7856   90.5161   16.9058 O.2     1  UNL1       -0.2736
     41 N          63.2712   88.1861   15.8639 N.am    1  UNL1       -0.3063
     42 H          63.5508   87.6370   15.0961 H       1  UNL1        0.1493
     43 C          62.9049   87.5294   17.1618 C.3     1  UNL1        0.0569
     44 C          63.2808   88.7797   17.9005 C.3     1  UNL1        0.0196
     45 C          62.5289   86.2792   16.4232 C.3     1  UNL1        0.0196
     46 C          62.5385   86.8728   18.4597 C.3     1  UNL1        0.0196
     47 C          66.4282   92.6648   12.9535 C.3     1  UNL1        0.0993
     48 C          67.1186   95.2748    9.3534 C.ar    1  UNL1        0.1724
     49 C          66.4500   95.8391   10.5717 C.ar    1  UNL1        0.0398
     50 C          66.2199   94.9691   11.7718 C.ar    1  UNL1        0.0004
     51 C          66.6584   93.5348   11.7535 C.ar    1  UNL1       -0.0029
     52 C          67.3269   92.9704   10.5351 C.ar    1  UNL1        0.0371
     53 C          67.5571   93.8404    9.3351 C.ar    1  UNL1        0.1721
     54 C          66.1802   96.6885    7.3859 C.3     1  UNL1        0.2526
     55 O          67.3487   96.1448    8.1533 O.3     1  UNL1       -0.4684
     56 O          68.2257   93.2760    8.1166 O.3     1  UNL1       -0.4684
     57 C          69.0214   92.0085    8.2171 C.3     1  UNL1        0.2526
@<TRIPOS>BOND
     1    54    55    1
     2    55    48    1
     3    48    49   ar
     4    49    50   ar
     5    50    51   ar
     6    51    47    1
     7    47    33    1
     8    33    34    1
     9    34    35    1
    10    35    36    1
    11    36    32    1
    12    32     1    1
    13     1     2    1
    14     1     4    1
    15     4    25    1
    16    25    26    1
    17    26    27   ar
    18    27    28   ar
    19    28    29   ar
    20    29    30   ar
    21    30    31   ar
    22     4     5    1
    23     5     6   am
    24     6     7    2
    25     6     9    1
    26     9    10    1
    27    10    11   am
    28    11    12    2
    29    11    14    1
    30    14    15    1
    31    15    16    1
    32    16    17   ar
    33    17    18   ar
    34    18    19   ar
    35    19    20    1
    36    19    21   ar
    37     9    22    1
    38    22    23    1
    39    22    24    1
    40    36    37    1
    41    37    39    1
    42    39    40    2
    43    39    41   am
    44    41    43    1
    45    43    44    1
    46    43    45    1
    47    43    46    1
    48    37    38    1
    49    51    52   ar
    50    52    53   ar
    51    53    56    1
    52    56    57    1
    53    53    48   ar
    54    38    33    1
    55    31    26   ar
    56    21    16   ar
    57     2     3    1
    58     5     8    1
    59    10    13    1
    60    41    42    1
