@<TRIPOS>MOLECULE
*****
 28 31 0 0 0
SMALL
GASTEIGER

@<TRIPOS>ATOM
      1 C          64.2852   89.3556   14.9957 C.ar    1  UNL1        0.0192
      2 C          63.3778   89.5240   16.1783 C.ar    1  UNL1        0.0047
      3 C          62.8189   88.3175   16.8726 C.ar    1  UNL1        0.0369
      4 C          63.1674   86.9426   16.3843 C.ar    1  UNL1        0.1386
      5 C          64.0747   86.7743   15.2017 C.ar    1  UNL1        0.0369
      6 C          64.6336   87.9808   14.5075 C.ar    1  UNL1        0.0047
      7 C          67.4122   93.5055   15.0021 C.3     1  UNL1        0.1571
      8 N          66.4075   92.6370   14.3046 N.ar    1  UNL1       -0.2149
      9 N          65.8487   91.4306   14.9989 N.ar    1  UNL1       -0.1671
     10 C          64.8440   90.5621   14.3014 C.ar    1  UNL1        0.0968
     11 C          64.3982   90.9001   12.9096 C.ar    1  UNL1       -0.0022
     12 C          64.9571   92.1066   12.2153 C.ar    1  UNL1        0.0329
     13 C          65.9618   92.9751   12.9129 C.ar    1  UNL1        0.2721
     14 O          66.5207   94.1816   12.2186 O.2     1  UNL1       -0.2659
     15 C          64.5114   92.4447   10.8236 C.3     1  UNL1        0.0310
     16 C          63.5068   91.5762   10.1261 C.3     1  UNL1        0.0052
     17 C          62.9479   90.3697   10.8204 C.3     1  UNL1        0.0051
     18 C          63.3936   90.0317   12.2121 C.3     1  UNL1        0.0278
     19 O          62.6085   85.7362   17.0786 O.3     1  UNL1       -0.4754
     20 C          62.7927   84.3734   16.4792 C.3     1  UNL1        0.2068
     21 C          62.3174   84.0975   15.0835 C.3     1  UNL1        0.0646
     22 C          63.1578   83.2726   14.1543 C.3     1  UNL1        0.0759
     23 N          63.2287   83.6221   12.6974 N.3     1  UNL1       -0.2726
     24 C          64.0268   82.7665   11.7588 C.3     1  UNL1        0.0721
     25 C          64.0977   83.1160   10.3018 C.3     1  UNL1        0.0174
     26 C          63.3706   84.3212    9.7834 C.3     1  UNL1        0.0029
     27 C          62.5724   85.1768   10.7219 C.3     1  UNL1        0.0174
     28 C          62.5015   84.8273   12.1789 C.3     1  UNL1        0.0721
@<TRIPOS>BOND
     1     7     8    1
     2     8     9   ar
     3     9    10   ar
     4    10     1    1
     5     1     2   ar
     6     2     3   ar
     7     3     4   ar
     8     4    19    1
     9    19    20    1
    10    20    21    1
    11    21    22    1
    12    22    23    1
    13    23    24    1
    14    24    25    1
    15    25    26    1
    16    26    27    1
    17    27    28    1
    18     4     5   ar
    19     5     6   ar
    20    10    11   ar
    21    11    12   ar
    22    12    13   ar
    23    13    14    2
    24    12    15    1
    25    15    16    1
    26    16    17    1
    27    17    18    1
    28    13     8   ar
    29     6     1   ar
    30    18    11    1
    31    28    23    1
@<TRIPOS>MOLECULE
*****
 28 31 0 0 0
SMALL
GASTEIGER

@<TRIPOS>ATOM
      1 C          64.0445   89.3193   14.5766 C.ar    1  UNL1        0.0192
      2 C          64.4907   87.9159   14.2909 C.ar    1  UNL1        0.0047
      3 C          64.1691   86.8152   15.2579 C.ar    1  UNL1        0.0369
      4 C          63.4015   87.1179   16.5106 C.ar    1  UNL1        0.1386
      5 C          62.9554   88.5212   16.7963 C.ar    1  UNL1        0.0369
      6 C          63.2769   89.6219   15.8293 C.ar    1  UNL1        0.0047
      7 C          63.3733   91.5802    9.9465 C.3     1  UNL1        0.1571
      8 N          64.0304   91.5505   11.2946 N.ar    1  UNL1       -0.2149
      9 N          63.7089   90.4498   12.2616 N.ar    1  UNL1       -0.1671
     10 C          64.3660   90.4200   13.6096 C.ar    1  UNL1        0.0968
     11 C          65.3448   91.4910   13.9907 C.ar    1  UNL1       -0.0022
     12 C          65.6663   92.5917   13.0238 C.ar    1  UNL1        0.0329
     13 C          65.0091   92.6214   11.6757 C.ar    1  UNL1        0.2721
     14 O          65.3306   93.7221   10.7087 O.2     1  UNL1       -0.2659
     15 C          66.6449   93.6627   13.4048 C.3     1  UNL1        0.0310
     16 C          67.3020   93.6329   14.7529 C.3     1  UNL1        0.0052
     17 C          66.9805   92.5322   15.7198 C.3     1  UNL1        0.0051
     18 C          66.0019   91.4613   15.3388 C.3     1  UNL1        0.0278
     19 O          63.0800   86.0172   17.4776 O.3     1  UNL1       -0.4754
     20 C          62.7039   84.6573   16.9681 C.3     1  UNL1        0.2068
     21 C          62.4236   84.4544   15.5085 C.3     1  UNL1        0.0646
     22 C          63.1625   83.3972   14.7428 C.3     1  UNL1        0.0759
     23 N          63.3068   83.5122   13.2542 N.3     1  UNL1       -0.2726
     24 C          62.6404   84.6383   12.5208 C.3     1  UNL1        0.0721
     25 C          62.7848   84.7532   11.0322 C.3     1  UNL1        0.0174
     26 C          63.5955   83.7422   10.2770 C.3     1  UNL1        0.0029
     27 C          64.2619   82.6161   11.0104 C.3     1  UNL1        0.0174
     28 C          64.1175   82.5011   12.4990 C.3     1  UNL1        0.0721
@<TRIPOS>BOND
     1     7     8    1
     2     8     9   ar
     3     9    10   ar
     4    10     1    1
     5     1     2   ar
     6     2     3   ar
     7     3     4   ar
     8     4    19    1
     9    19    20    1
    10    20    21    1
    11    21    22    1
    12    22    23    1
    13    23    24    1
    14    24    25    1
    15    25    26    1
    16    26    27    1
    17    27    28    1
    18     4     5   ar
    19     5     6   ar
    20    10    11   ar
    21    11    12   ar
    22    12    13   ar
    23    13    14    2
    24    12    15    1
    25    15    16    1
    26    16    17    1
    27    17    18    1
    28    13     8   ar
    29     6     1   ar
    30    18    11    1
    31    28    23    1
@<TRIPOS>MOLECULE
*****
 28 31 0 0 0
SMALL
GASTEIGER

@<TRIPOS>ATOM
      1 C          62.1170   89.6797   11.3776 C.ar    1  UNL1        0.0192
      2 C          62.4538   88.3603   10.7483 C.ar    1  UNL1        0.0047
      3 C          61.6196   87.8337    9.6183 C.ar    1  UNL1        0.0369
      4 C          60.4487   88.6265    9.1176 C.ar    1  UNL1        0.1386
      5 C          60.1120   89.9458    9.7469 C.ar    1  UNL1        0.0369
      6 C          60.9462   90.4724   10.8769 C.ar    1  UNL1        0.0047
      7 C          63.3169   89.7493   16.4329 C.3     1  UNL1        0.1571
      8 N          63.5511   90.2411   15.0352 N.ar    1  UNL1       -0.2149
      9 N          62.7170   89.7145   13.9052 N.ar    1  UNL1       -0.1671
     10 C          62.9511   90.2063   12.5076 C.ar    1  UNL1        0.0968
     11 C          64.0195   91.2247   12.2400 C.ar    1  UNL1       -0.0022
     12 C          64.8536   91.7513   13.3700 C.ar    1  UNL1        0.0329
     13 C          64.6194   91.2595   14.7676 C.ar    1  UNL1        0.2721
     14 O          65.4535   91.7861   15.8976 O.2     1  UNL1       -0.2659
     15 C          65.9219   92.7697   13.1024 C.3     1  UNL1        0.0310
     16 C          66.1561   93.2614   11.7048 C.3     1  UNL1        0.0052
     17 C          65.3219   92.7348   10.5748 C.3     1  UNL1        0.0051
     18 C          64.2536   91.7165   10.8424 C.3     1  UNL1        0.0278
     19 O          59.6146   88.0999    7.9876 O.3     1  UNL1       -0.4754
     20 C          58.9474   89.0528    7.0405 C.3     1  UNL1        0.2068
     21 C          59.7469   89.7203    5.9610 C.3     1  UNL1        0.0646
     22 C          59.2990   91.0382    5.4021 C.3     1  UNL1        0.0759
     23 N          60.0948   91.7025    4.3179 N.3     1  UNL1       -0.2726
     24 C          59.4409   92.7061    3.4152 C.3     1  UNL1        0.0721
     25 C          60.2367   93.3704    2.3311 C.3     1  UNL1        0.0174
     26 C          61.6865   93.0310    2.1497 C.3     1  UNL1        0.0029
     27 C          62.3404   92.0273    3.0524 C.3     1  UNL1        0.0174
     28 C          61.5446   91.3631    4.1365 C.3     1  UNL1        0.0721
@<TRIPOS>BOND
     1     7     8    1
     2     8     9   ar
     3     9    10   ar
     4    10     1    1
     5     1     2   ar
     6     2     3   ar
     7     3     4   ar
     8     4    19    1
     9    19    20    1
    10    20    21    1
    11    21    22    1
    12    22    23    1
    13    23    24    1
    14    24    25    1
    15    25    26    1
    16    26    27    1
    17    27    28    1
    18     4     5   ar
    19     5     6   ar
    20    10    11   ar
    21    11    12   ar
    22    12    13   ar
    23    13    14    2
    24    12    15    1
    25    15    16    1
    26    16    17    1
    27    17    18    1
    28    13     8   ar
    29     6     1   ar
    30    18    11    1
    31    28    23    1
@<TRIPOS>MOLECULE
*****
 28 31 0 0 0
SMALL
GASTEIGER

@<TRIPOS>ATOM
      1 C          62.1787   90.0530   11.6743 C.ar    1  UNL1        0.0192
      2 C          60.6902   90.1145   11.8501 C.ar    1  UNL1        0.0047
      3 C          59.7853   89.6281   10.7571 C.ar    1  UNL1        0.0369
      4 C          60.3688   89.0803    9.4884 C.ar    1  UNL1        0.1386
      5 C          61.8572   89.0189    9.3128 C.ar    1  UNL1        0.0369
      6 C          62.7621   89.5052   10.4057 C.ar    1  UNL1        0.0047
      7 C          63.5096   90.1710   16.6958 C.3     1  UNL1        0.1571
      8 N          63.7491   90.5984   15.2780 N.ar    1  UNL1       -0.2149
      9 N          62.8441   90.1120   14.1850 N.ar    1  UNL1       -0.1671
     10 C          63.0836   90.5394   12.7673 C.ar    1  UNL1        0.0968
     11 C          64.2280   91.4531   12.4425 C.ar    1  UNL1       -0.0022
     12 C          65.1330   91.9394   13.5354 C.ar    1  UNL1        0.0329
     13 C          64.8935   91.5120   14.9532 C.ar    1  UNL1        0.2721
     14 O          65.7984   91.9984   16.0462 O.2     1  UNL1       -0.2659
     15 C          66.2773   92.8531   13.2107 C.3     1  UNL1        0.0310
     16 C          66.5168   93.2804   11.7929 C.3     1  UNL1        0.0052
     17 C          65.6119   92.7941   10.7000 C.3     1  UNL1        0.0051
     18 C          64.4675   91.8804   11.0247 C.3     1  UNL1        0.0278
     19 O          59.4639   88.5940    8.3955 O.3     1  UNL1       -0.4754
     20 C          59.7118   87.2608    7.7541 C.3     1  UNL1        0.2068
     21 C          60.3097   86.1426    8.5555 C.3     1  UNL1        0.0646
     22 C          61.7881   85.8933    8.5084 C.3     1  UNL1        0.0759
     23 N          62.4628   85.1696    9.6357 N.3     1  UNL1       -0.2726
     24 C          63.4631   84.0909    9.3425 C.3     1  UNL1        0.0721
     25 C          64.1379   83.3672   10.4698 C.3     1  UNL1        0.0174
     26 C          63.8124   83.7221   11.8904 C.3     1  UNL1        0.0029
     27 C          62.8122   84.8008   12.1837 C.3     1  UNL1        0.0174
     28 C          62.1374   85.5245   11.0563 C.3     1  UNL1        0.0721
@<TRIPOS>BOND
     1     7     8    1
     2     8     9   ar
     3     9    10   ar
     4    10     1    1
     5     1     2   ar
     6     2     3   ar
     7     3     4   ar
     8     4    19    1
     9    19    20    1
    10    20    21    1
    11    21    22    1
    12    22    23    1
    13    23    24    1
    14    24    25    1
    15    25    26    1
    16    26    27    1
    17    27    28    1
    18     4     5   ar
    19     5     6   ar
    20    10    11   ar
    21    11    12   ar
    22    12    13   ar
    23    13    14    2
    24    12    15    1
    25    15    16    1
    26    16    17    1
    27    17    18    1
    28    13     8   ar
    29     6     1   ar
    30    18    11    1
    31    28    23    1
@<TRIPOS>MOLECULE
*****
 28 31 0 0 0
SMALL
GASTEIGER

@<TRIPOS>ATOM
      1 C          63.1067   89.3949   12.1727 C.ar    1  UNL1        0.0192
      2 C          63.5471   88.8591   13.5028 C.ar    1  UNL1        0.0047
      3 C          64.2946   89.7426   14.4571 C.ar    1  UNL1        0.0369
      4 C          64.6016   91.1620   14.0813 C.ar    1  UNL1        0.1386
      5 C          64.1612   91.6978   12.7513 C.ar    1  UNL1        0.0369
      6 C          63.4138   90.8142   11.7970 C.ar    1  UNL1        0.0047
      7 C          59.9414   88.8438    8.0890 C.3     1  UNL1        0.1571
      8 N          60.7766   88.2358    9.1766 N.ar    1  UNL1       -0.2149
      9 N          61.5241   89.1193   10.1309 N.ar    1  UNL1       -0.1671
     10 C          62.3593   88.5114   11.2184 C.ar    1  UNL1        0.0968
     11 C          62.4471   87.0198   11.3517 C.ar    1  UNL1       -0.0022
     12 C          61.6996   86.1363   10.3974 C.ar    1  UNL1        0.0329
     13 C          60.8644   86.7443    9.3098 C.ar    1  UNL1        0.2721
     14 O          60.1169   85.8608    8.3555 O.2     1  UNL1       -0.2659
     15 C          61.7873   84.6448   10.5307 C.3     1  UNL1        0.0310
     16 C          62.6226   84.0369   11.6182 C.3     1  UNL1        0.0052
     17 C          63.3700   84.9205   12.5725 C.3     1  UNL1        0.0051
     18 C          63.2823   86.4119   12.4393 C.3     1  UNL1        0.0278
     19 O          65.3491   92.0455   15.0356 O.3     1  UNL1       -0.4754
     20 C          66.7175   92.5462   14.6792 C.3     1  UNL1        0.2068
     21 C          66.8783   93.8827   14.0174 C.3     1  UNL1        0.0646
     22 C          66.2114   94.1530   12.7013 C.3     1  UNL1        0.0759
     23 N          66.9046   93.7918   11.4211 N.3     1  UNL1       -0.2726
     24 C          67.4043   92.3938   11.2074 C.3     1  UNL1        0.0721
     25 C          68.0975   92.0326    9.9271 C.3     1  UNL1        0.0174
     26 C          68.2909   93.0694    8.8606 C.3     1  UNL1        0.0029
     27 C          67.7912   94.4674    9.0743 C.3     1  UNL1        0.0174
     28 C          67.0980   94.8286   10.3546 C.3     1  UNL1        0.0721
@<TRIPOS>BOND
     1     7     8    1
     2     8     9   ar
     3     9    10   ar
     4    10     1    1
     5     1     2   ar
     6     2     3   ar
     7     3     4   ar
     8     4    19    1
     9    19    20    1
    10    20    21    1
    11    21    22    1
    12    22    23    1
    13    23    24    1
    14    24    25    1
    15    25    26    1
    16    26    27    1
    17    27    28    1
    18     4     5   ar
    19     5     6   ar
    20    10    11   ar
    21    11    12   ar
    22    12    13   ar
    23    13    14    2
    24    12    15    1
    25    15    16    1
    26    16    17    1
    27    17    18    1
    28    13     8   ar
    29     6     1   ar
    30    18    11    1
    31    28    23    1
@<TRIPOS>MOLECULE
*****
 28 31 0 0 0
SMALL
GASTEIGER

@<TRIPOS>ATOM
      1 C          63.7912   88.4457   13.4777 C.ar    1  UNL1        0.0192
      2 C          64.1780   88.6301   14.9153 C.ar    1  UNL1        0.0047
      3 C          64.5625   89.9893   15.4200 C.ar    1  UNL1        0.0369
      4 C          64.5602   91.1641   14.4872 C.ar    1  UNL1        0.1386
      5 C          64.1734   90.9796   13.0498 C.ar    1  UNL1        0.0369
      6 C          63.7889   89.6204   12.5450 C.ar    1  UNL1        0.0047
      7 C          63.7557   83.2803   14.0411 C.3     1  UNL1        0.1571
      8 N          63.3889   84.5038   13.2546 N.ar    1  UNL1       -0.2149
      9 N          63.7734   85.8630   13.7594 N.ar    1  UNL1       -0.1671
     10 C          63.4067   87.0865   12.9729 C.ar    1  UNL1        0.0968
     11 C          62.6555   86.9509   11.6816 C.ar    1  UNL1       -0.0022
     12 C          62.2710   85.5917   11.1769 C.ar    1  UNL1        0.0329
     13 C          62.6378   84.3681   11.9634 C.ar    1  UNL1        0.2721
     14 O          62.2533   83.0090   11.4586 O.2     1  UNL1       -0.2659
     15 C          61.5199   85.4560    9.8857 C.3     1  UNL1        0.0310
     16 C          61.1532   86.6795    9.0992 C.3     1  UNL1        0.0052
     17 C          61.5377   88.0387    9.6040 C.3     1  UNL1        0.0051
     18 C          62.2888   88.1744   10.8952 C.3     1  UNL1        0.0278
     19 O          64.9447   92.5233   14.9920 O.3     1  UNL1       -0.4754
     20 C          66.3831   92.9485   14.9800 C.3     1  UNL1        0.2068
     21 C          66.8656   93.9329   13.9562 C.3     1  UNL1        0.0646
     22 C          66.1532   94.0584   12.6422 C.3     1  UNL1        0.0759
     23 N          66.8722   93.7375   11.3655 N.3     1  UNL1       -0.2726
     24 C          67.4317   92.3634   11.1447 C.3     1  UNL1        0.0721
     25 C          68.1508   92.0426    9.8680 C.3     1  UNL1        0.0174
     26 C          68.3104   93.0959    8.8121 C.3     1  UNL1        0.0029
     27 C          67.7509   94.4700    9.0328 C.3     1  UNL1        0.0174
     28 C          67.0319   94.7908   10.3095 C.3     1  UNL1        0.0721
@<TRIPOS>BOND
     1     7     8    1
     2     8     9   ar
     3     9    10   ar
     4    10     1    1
     5     1     2   ar
     6     2     3   ar
     7     3     4   ar
     8     4    19    1
     9    19    20    1
    10    20    21    1
    11    21    22    1
    12    22    23    1
    13    23    24    1
    14    24    25    1
    15    25    26    1
    16    26    27    1
    17    27    28    1
    18     4     5   ar
    19     5     6   ar
    20    10    11   ar
    21    11    12   ar
    22    12    13   ar
    23    13    14    2
    24    12    15    1
    25    15    16    1
    26    16    17    1
    27    17    18    1
    28    13     8   ar
    29     6     1   ar
    30    18    11    1
    31    28    23    1
@<TRIPOS>MOLECULE
*****
 28 31 0 0 0
SMALL
GASTEIGER

@<TRIPOS>ATOM
      1 C          61.5473   86.2449   10.4899 C.ar    1  UNL1        0.0192
      2 C          60.5809   87.3538   10.7838 C.ar    1  UNL1        0.0047
      3 C          59.8105   87.9930    9.6668 C.ar    1  UNL1        0.0369
      4 C          60.0065   87.5233    8.2557 C.ar    1  UNL1        0.1386
      5 C          60.9729   86.4144    7.9618 C.ar    1  UNL1        0.0369
      6 C          61.7433   85.7752    9.0789 C.ar    1  UNL1        0.0047
      7 C          63.1511   81.9786   12.9852 C.3     1  UNL1        0.1571
      8 N          63.1196   83.4726   12.8546 N.ar    1  UNL1       -0.2149
      9 N          62.3492   84.1118   11.7375 N.ar    1  UNL1       -0.1671
     10 C          62.3178   85.6057   11.6070 C.ar    1  UNL1        0.0968
     11 C          63.0567   86.4606   12.5935 C.ar    1  UNL1       -0.0022
     12 C          63.8271   85.8214   13.7106 C.ar    1  UNL1        0.0329
     13 C          63.8586   84.3273   13.8412 C.ar    1  UNL1        0.2721
     14 O          64.6290   83.6882   14.9583 O.2     1  UNL1       -0.2659
     15 C          64.5661   86.6761   14.6972 C.3     1  UNL1        0.0310
     16 C          64.5346   88.1701   14.5666 C.3     1  UNL1        0.0052
     17 C          63.7642   88.8093   13.4495 C.3     1  UNL1        0.0051
     18 C          63.0253   87.9545   12.4630 C.3     1  UNL1        0.0278
     19 O          59.2361   88.1625    7.1386 O.3     1  UNL1       -0.4754
     20 C          59.4548   89.6093    6.8086 C.3     1  UNL1        0.2068
     21 C          58.8593   90.1924    5.5614 C.3     1  UNL1        0.0646
     22 C          59.1339   91.6211    5.1962 C.3     1  UNL1        0.0759
     23 N          60.1826   91.9458    4.1741 N.3     1  UNL1       -0.2726
     24 C          61.5301   91.2909    4.2480 C.3     1  UNL1        0.0721
     25 C          62.5788   91.6156    3.2259 C.3     1  UNL1        0.0174
     26 C          62.2801   92.5951    2.1299 C.3     1  UNL1        0.0029
     27 C          60.9326   93.2500    2.0560 C.3     1  UNL1        0.0174
     28 C          59.8839   92.9253    3.0781 C.3     1  UNL1        0.0721
@<TRIPOS>BOND
     1     7     8    1
     2     8     9   ar
     3     9    10   ar
     4    10     1    1
     5     1     2   ar
     6     2     3   ar
     7     3     4   ar
     8     4    19    1
     9    19    20    1
    10    20    21    1
    11    21    22    1
    12    22    23    1
    13    23    24    1
    14    24    25    1
    15    25    26    1
    16    26    27    1
    17    27    28    1
    18     4     5   ar
    19     5     6   ar
    20    10    11   ar
    21    11    12   ar
    22    12    13   ar
    23    13    14    2
    24    12    15    1
    25    15    16    1
    26    16    17    1
    27    17    18    1
    28    13     8   ar
    29     6     1   ar
    30    18    11    1
    31    28    23    1
@<TRIPOS>MOLECULE
*****
 28 31 0 0 0
SMALL
GASTEIGER

@<TRIPOS>ATOM
      1 C          64.3334   89.7002   14.9720 C.ar    1  UNL1        0.0192
      2 C          64.6049   88.3021   14.5012 C.ar    1  UNL1        0.0047
      3 C          64.0430   87.1341   15.2562 C.ar    1  UNL1        0.0369
      4 C          63.2096   87.3641   16.4820 C.ar    1  UNL1        0.1386
      5 C          62.9381   88.7622   16.9528 C.ar    1  UNL1        0.0369
      6 C          63.5000   89.9302   16.1978 C.ar    1  UNL1        0.0047
      7 C          67.4934   93.8194   14.7561 C.3     1  UNL1        0.1571
      8 N          66.4752   92.9278   14.1091 N.ar    1  UNL1       -0.2149
      9 N          65.9133   91.7598   14.8640 N.ar    1  UNL1       -0.1671
     10 C          64.8953   90.8683   14.2171 C.ar    1  UNL1        0.0968
     11 C          64.4390   91.1447   12.8151 C.ar    1  UNL1       -0.0022
     12 C          65.0009   92.3128   12.0601 C.ar    1  UNL1        0.0329
     13 C          66.0190   93.2043   12.7071 C.ar    1  UNL1        0.2721
     14 O          66.5809   94.3724   11.9522 O.2     1  UNL1       -0.2659
     15 C          64.5447   92.5892   10.6582 C.3     1  UNL1        0.0310
     16 C          63.5266   91.6977   10.0113 C.3     1  UNL1        0.0052
     17 C          62.9647   90.5297   10.7663 C.3     1  UNL1        0.0051
     18 C          63.4209   90.2532   12.1682 C.3     1  UNL1        0.0278
     19 O          62.6477   86.1961   17.2369 O.3     1  UNL1       -0.4754
     20 C          62.8085   84.8062   16.6963 C.3     1  UNL1        0.2068
     21 C          63.2892   84.5992   15.2906 C.3     1  UNL1        0.0646
     22 C          63.9804   83.3221   14.9147 C.3     1  UNL1        0.0759
     23 N          63.1856   82.1693   14.3767 N.3     1  UNL1       -0.2726
     24 C          61.7126   82.0832   14.6464 C.3     1  UNL1        0.0721
     25 C          60.9178   80.9304   14.1085 C.3     1  UNL1        0.0174
     26 C          61.5960   79.8637   13.3009 C.3     1  UNL1        0.0029
     27 C          63.0691   79.9499   13.0312 C.3     1  UNL1        0.0174
     28 C          63.8638   81.1027   13.5691 C.3     1  UNL1        0.0721
@<TRIPOS>BOND
     1     7     8    1
     2     8     9   ar
     3     9    10   ar
     4    10     1    1
     5     1     2   ar
     6     2     3   ar
     7     3     4   ar
     8     4    19    1
     9    19    20    1
    10    20    21    1
    11    21    22    1
    12    22    23    1
    13    23    24    1
    14    24    25    1
    15    25    26    1
    16    26    27    1
    17    27    28    1
    18     4     5   ar
    19     5     6   ar
    20    10    11   ar
    21    11    12   ar
    22    12    13   ar
    23    13    14    2
    24    12    15    1
    25    15    16    1
    26    16    17    1
    27    17    18    1
    28    13     8   ar
    29     6     1   ar
    30    18    11    1
    31    28    23    1
@<TRIPOS>MOLECULE
*****
 28 31 0 0 0
SMALL
GASTEIGER

@<TRIPOS>ATOM
      1 C          63.1174   90.3345   11.4063 C.ar    1  UNL1        0.0192
      2 C          62.1760   90.8157   10.3423 C.ar    1  UNL1        0.0047
      3 C          61.1467   89.8840    9.7744 C.ar    1  UNL1        0.0369
      4 C          61.0588   88.4711   10.2705 C.ar    1  UNL1        0.1386
      5 C          62.0003   87.9900   11.3345 C.ar    1  UNL1        0.0369
      6 C          63.0295   88.9217   11.9024 C.ar    1  UNL1        0.0047
      7 C          66.8489   93.8826   10.7082 C.3     1  UNL1        0.1571
      8 N          66.0124   93.0402   11.6252 N.ar    1  UNL1       -0.2149
      9 N          64.9832   92.1085   11.0573 N.ar    1  UNL1       -0.1671
     10 C          64.1467   91.2662   11.9743 C.ar    1  UNL1        0.0968
     11 C          64.3395   91.3555   13.4592 C.ar    1  UNL1       -0.0022
     12 C          65.3688   92.2872   14.0271 C.ar    1  UNL1        0.0329
     13 C          66.2053   93.1296   13.1101 C.ar    1  UNL1        0.2721
     14 O          67.2346   94.0613   13.6780 O.2     1  UNL1       -0.2659
     15 C          65.5616   92.3766   15.5119 C.3     1  UNL1        0.0310
     16 C          64.7252   91.5343   16.4288 C.3     1  UNL1        0.0052
     17 C          63.6959   90.6026   15.8609 C.3     1  UNL1        0.0051
     18 C          63.5031   90.5132   14.3761 C.3     1  UNL1        0.0278
     19 O          60.0295   87.5395    9.7026 O.3     1  UNL1       -0.4754
     20 C          60.2337   86.9335    8.3457 C.3     1  UNL1        0.2068
     21 C          61.0913   85.7126    8.1908 C.3     1  UNL1        0.0646
     22 C          62.5054   85.7210    8.6910 C.3     1  UNL1        0.0759
     23 N          62.9220   84.7755    9.7784 N.3     1  UNL1       -0.2726
     24 C          63.9498   83.7189    9.5005 C.3     1  UNL1        0.0721
     25 C          64.3664   82.7734   10.5879 C.3     1  UNL1        0.0174
     26 C          63.7552   82.8844   11.9532 C.3     1  UNL1        0.0029
     27 C          62.7274   83.9410   12.2311 C.3     1  UNL1        0.0174
     28 C          62.3108   84.8865   11.1437 C.3     1  UNL1        0.0721
@<TRIPOS>BOND
     1     7     8    1
     2     8     9   ar
     3     9    10   ar
     4    10     1    1
     5     1     2   ar
     6     2     3   ar
     7     3     4   ar
     8     4    19    1
     9    19    20    1
    10    20    21    1
    11    21    22    1
    12    22    23    1
    13    23    24    1
    14    24    25    1
    15    25    26    1
    16    26    27    1
    17    27    28    1
    18     4     5   ar
    19     5     6   ar
    20    10    11   ar
    21    11    12   ar
    22    12    13   ar
    23    13    14    2
    24    12    15    1
    25    15    16    1
    26    16    17    1
    27    17    18    1
    28    13     8   ar
    29     6     1   ar
    30    18    11    1
    31    28    23    1
