@<TRIPOS>MOLECULE
*****
 31 33 0 0 0
SMALL
GASTEIGER

@<TRIPOS>ATOM
      1 C          63.2330   88.5797   16.1241 C.2     1  UNL1        0.2430
      2 O          62.3077   89.7585   16.1909 O.2     1  UNL1       -0.2732
      3 N          64.3728   88.5753   15.1490 N.am    1  UNL1       -0.2972
      4 H          64.9800   87.8016   15.1052 H       1  UNL1        0.1500
      5 C          63.0183   87.4054   17.0324 C.3     1  UNL1        0.1756
      6 O          64.7271   85.5835   15.3709 O.2     1  UNL1       -0.2751
      7 C          63.3003   85.2196   15.6567 C.2     1  UNL1        0.2231
      8 N          62.4459   86.1305   16.4875 N.am    1  UNL1       -0.2966
      9 H          61.5094   85.8917   16.6751 H       1  UNL1        0.1499
     10 C          62.7278   83.9447   15.1118 C.3     1  UNL1        0.0897
     11 C          63.5057   83.1398   14.1133 C.3     1  UNL1        0.0359
     12 C          63.4721   83.5118   12.6605 C.ar    1  UNL1       -0.0217
     13 C          62.5937   84.6346   12.1939 C.ar    1  UNL1       -0.0043
     14 C          62.5602   85.0065   10.7412 C.ar    1  UNL1       -0.0003
     15 C          63.4049   84.2556    9.7550 C.ar    1  UNL1       -0.0000
     16 C          64.2832   83.1328   10.2216 C.ar    1  UNL1       -0.0003
     17 C          64.3168   82.7608   11.6743 C.ar    1  UNL1       -0.0043
     18 C          64.5873   89.7496   14.2408 C.3     1  UNL1        0.1169
     19 C          65.5257   90.8481   14.6441 C.ar    1  UNL1       -0.0003
     20 C          65.1864   91.7362   15.8043 C.ar    1  UNL1       -0.0015
     21 C          66.1248   92.8347   16.2076 C.ar    1  UNL1        0.0111
     22 C          67.4026   93.0451   15.4507 C.ar    1  UNL1        0.0577
     23 CL         68.3410   94.1436   15.8540 Cl      1  UNL1       -0.0822
     24 C          67.7420   92.1570   14.2905 C.ar    1  UNL1        0.0111
     25 C          66.8036   91.0585   13.8872 C.ar    1  UNL1       -0.0015
     26 C          63.8634   89.8254   12.9291 C.ar    1  UNL1       -0.0003
     27 C          63.1638   88.6142   12.3875 C.ar    1  UNL1       -0.0024
     28 C          62.4399   88.6901   11.0759 C.ar    1  UNL1       -0.0003
     29 C          62.4157   89.9772   10.3059 C.ar    1  UNL1       -0.0000
     30 C          63.1154   91.1884   10.8476 C.ar    1  UNL1       -0.0003
     31 C          63.8393   91.1125   12.1592 C.ar    1  UNL1       -0.0024
@<TRIPOS>BOND
     1     6     7    2
     2     7    10    1
     3    10    11    1
     4    11    12    1
     5    12    13   ar
     6    13    14   ar
     7    14    15   ar
     8    15    16   ar
     9    16    17   ar
    10     7     8   am
    11     8     5    1
    12     5     1    1
    13     1     2    2
    14     1     3   am
    15     3    18    1
    16    18    26    1
    17    26    27   ar
    18    27    28   ar
    19    28    29   ar
    20    29    30   ar
    21    30    31   ar
    22    18    19    1
    23    19    20   ar
    24    20    21   ar
    25    21    22   ar
    26    22    23    1
    27    22    24   ar
    28    24    25   ar
    29    17    12   ar
    30    31    26   ar
    31    25    19   ar
    32     8     9    1
    33     3     4    1
@<TRIPOS>MOLECULE
*****
 31 33 0 0 0
SMALL
GASTEIGER

@<TRIPOS>ATOM
      1 C          63.2258   88.5954   16.0122 C.2     1  UNL1        0.2430
      2 O          62.1421   89.6325   16.0262 O.2     1  UNL1       -0.2732
      3 N          64.3154   88.6632   14.9836 N.am    1  UNL1       -0.2972
      4 H          65.0267   87.9826   14.9744 H       1  UNL1        0.1500
      5 C          63.2197   87.4905   17.0267 C.3     1  UNL1        0.1756
      6 O          64.7802   85.7465   15.1498 O.2     1  UNL1       -0.2751
      7 C          63.4787   85.2620   15.7166 C.2     1  UNL1        0.2231
      8 N          62.6984   86.1340   16.6551 N.am    1  UNL1       -0.2966
      9 H          61.8442   85.8160   17.0271 H       1  UNL1        0.1499
     10 C          62.9575   83.9054   15.3450 C.3     1  UNL1        0.0897
     11 C          63.7169   83.0502   14.3745 C.3     1  UNL1        0.0359
     12 C          63.6307   83.3281   12.9029 C.ar    1  UNL1       -0.0217
     13 C          64.4425   82.5164   11.9375 C.ar    1  UNL1       -0.0043
     14 C          64.3563   82.7943   10.4661 C.ar    1  UNL1       -0.0003
     15 C          63.4583   83.8840    9.9600 C.ar    1  UNL1       -0.0000
     16 C          62.6464   84.6957   10.9253 C.ar    1  UNL1       -0.0003
     17 C          62.7326   84.4178   12.3968 C.ar    1  UNL1       -0.0043
     18 C          64.3215   89.7681   13.9692 C.3     1  UNL1        0.1169
     19 C          63.4697   89.6616   12.7391 C.ar    1  UNL1       -0.0003
     20 C          62.9956   90.9041   12.0452 C.ar    1  UNL1       -0.0015
     21 C          62.1438   90.7976   10.8152 C.ar    1  UNL1        0.0111
     22 C          61.7660   89.4486   10.2790 C.ar    1  UNL1        0.0577
     23 CL         60.9141   89.3421    9.0490 Cl      1  UNL1       -0.0822
     24 C          62.2400   88.2061   10.9729 C.ar    1  UNL1        0.0111
     25 C          63.0919   88.3126   12.2030 C.ar    1  UNL1       -0.0015
     26 C          65.1794   90.9796   14.1848 C.ar    1  UNL1       -0.0003
     27 C          65.9129   91.5943   13.0298 C.ar    1  UNL1       -0.0024
     28 C          66.7708   92.8058   13.2454 C.ar    1  UNL1       -0.0003
     29 C          66.8952   93.4025   14.6160 C.ar    1  UNL1       -0.0000
     30 C          66.1616   92.7876   15.7710 C.ar    1  UNL1       -0.0003
     31 C          65.3038   91.5762   15.5554 C.ar    1  UNL1       -0.0024
@<TRIPOS>BOND
     1     6     7    2
     2     7    10    1
     3    10    11    1
     4    11    12    1
     5    12    13   ar
     6    13    14   ar
     7    14    15   ar
     8    15    16   ar
     9    16    17   ar
    10     7     8   am
    11     8     5    1
    12     5     1    1
    13     1     2    2
    14     1     3   am
    15     3    18    1
    16    18    26    1
    17    26    27   ar
    18    27    28   ar
    19    28    29   ar
    20    29    30   ar
    21    30    31   ar
    22    18    19    1
    23    19    20   ar
    24    20    21   ar
    25    21    22   ar
    26    22    23    1
    27    22    24   ar
    28    24    25   ar
    29    17    12   ar
    30    31    26   ar
    31    25    19   ar
    32     8     9    1
    33     3     4    1
@<TRIPOS>MOLECULE
*****
 31 33 0 0 0
SMALL
GASTEIGER

@<TRIPOS>ATOM
      1 C          61.3833   88.7662   11.4736 C.2     1  UNL1        0.2430
      2 O          60.0850   88.0604   11.7309 O.2     1  UNL1       -0.2732
      3 N          62.5617   88.0011   10.9485 N.am    1  UNL1       -0.2972
      4 H          63.4138   88.4644   10.7796 H       1  UNL1        0.1500
      5 C          61.5031   90.2373   11.7414 C.3     1  UNL1        0.1756
      6 O          63.8228   91.4830   10.3038 O.2     1  UNL1       -0.2751
      7 C          63.8315   91.3881   11.8008 C.2     1  UNL1        0.2231
      8 N          62.6717   90.7652   12.5196 N.am    1  UNL1       -0.2966
      9 H          62.6774   90.7029   13.5021 H       1  UNL1        0.1499
     10 C          65.0002   91.9161   12.5790 C.3     1  UNL1        0.0897
     11 C          65.6139   93.2339   12.2090 C.3     1  UNL1        0.0359
     12 C          66.5527   93.3229   11.0425 C.ar    1  UNL1       -0.0217
     13 C          66.6310   94.5863   10.2376 C.ar    1  UNL1       -0.0043
     14 C          67.5698   94.6753    9.0712 C.ar    1  UNL1       -0.0003
     15 C          68.4302   93.5010    8.7095 C.ar    1  UNL1       -0.0000
     16 C          68.3519   92.2377    9.5144 C.ar    1  UNL1       -0.0003
     17 C          67.4131   92.1487   10.6809 C.ar    1  UNL1       -0.0043
     18 C          62.4419   86.5301   10.6807 C.3     1  UNL1        0.1169
     19 C          62.7496   85.5425   11.7670 C.ar    1  UNL1       -0.0003
     20 C          62.4192   84.0917   11.5772 C.ar    1  UNL1       -0.0015
     21 C          62.7269   83.1041   12.6635 C.ar    1  UNL1        0.0111
     22 C          63.3651   83.5673   13.9395 C.ar    1  UNL1        0.0577
     23 CL         63.6728   82.5797   15.0257 Cl      1  UNL1       -0.0822
     24 C          63.6955   85.0181   14.1293 C.ar    1  UNL1        0.0111
     25 C          63.3878   86.0057   13.0430 C.ar    1  UNL1       -0.0015
     26 C          62.0143   86.0466    9.3266 C.ar    1  UNL1       -0.0003
     27 C          62.9950   85.3401    8.4384 C.ar    1  UNL1       -0.0024
     28 C          62.5675   84.8566    7.0843 C.ar    1  UNL1       -0.0003
     29 C          61.1592   85.0798    6.6185 C.ar    1  UNL1       -0.0000
     30 C          60.1785   85.7864    7.5068 C.ar    1  UNL1       -0.0003
     31 C          60.6061   86.2698    8.8608 C.ar    1  UNL1       -0.0024
@<TRIPOS>BOND
     1     6     7    2
     2     7    10    1
     3    10    11    1
     4    11    12    1
     5    12    13   ar
     6    13    14   ar
     7    14    15   ar
     8    15    16   ar
     9    16    17   ar
    10     7     8   am
    11     8     5    1
    12     5     1    1
    13     1     2    2
    14     1     3   am
    15     3    18    1
    16    18    26    1
    17    26    27   ar
    18    27    28   ar
    19    28    29   ar
    20    29    30   ar
    21    30    31   ar
    22    18    19    1
    23    19    20   ar
    24    20    21   ar
    25    21    22   ar
    26    22    23    1
    27    22    24   ar
    28    24    25   ar
    29    17    12   ar
    30    31    26   ar
    31    25    19   ar
    32     8     9    1
    33     3     4    1
@<TRIPOS>MOLECULE
*****
 31 33 0 0 0
SMALL
GASTEIGER

@<TRIPOS>ATOM
      1 C          61.1583   88.7057   11.3649 C.2     1  UNL1        0.2430
      2 O          59.9079   87.9173   11.6198 O.2     1  UNL1       -0.2732
      3 N          62.3872   88.0170   10.8498 N.am    1  UNL1       -0.2972
      4 H          63.2079   88.5345   10.6825 H       1  UNL1        0.1500
      5 C          61.1797   90.1828   11.6252 C.3     1  UNL1        0.1756
      6 O          63.5975   91.0193   10.0586 O.2     1  UNL1       -0.2751
      7 C          63.5595   91.2219   11.5444 C.2     1  UNL1        0.2231
      8 N          62.3506   90.8037   12.3277 N.am    1  UNL1       -0.2966
      9 H          62.3256   90.9367   13.3028 H       1  UNL1        0.1499
     10 C          64.7305   91.8428   12.2469 C.3     1  UNL1        0.0897
     11 C          65.0229   91.4879   13.6746 C.3     1  UNL1        0.0359
     12 C          66.2972   91.9507   14.3166 C.ar    1  UNL1       -0.0217
     13 C          66.2746   92.5173   15.7053 C.ar    1  UNL1       -0.0043
     14 C          67.5488   92.9802   16.3472 C.ar    1  UNL1       -0.0003
     15 C          68.8456   92.8765   15.6005 C.ar    1  UNL1       -0.0000
     16 C          68.8682   92.3099   14.2119 C.ar    1  UNL1       -0.0003
     17 C          67.5940   91.8470   13.5699 C.ar    1  UNL1       -0.0043
     18 C          62.3657   86.5400   10.5895 C.3     1  UNL1        0.1169
     19 C          62.7249   85.5801   11.6848 C.ar    1  UNL1       -0.0003
     20 C          62.4923   84.1099   11.4997 C.ar    1  UNL1       -0.0015
     21 C          62.8515   83.1500   12.5950 C.ar    1  UNL1        0.0111
     22 C          63.4432   83.6604   13.8754 C.ar    1  UNL1        0.0577
     23 CL         63.8024   82.7005   14.9706 Cl      1  UNL1       -0.0822
     24 C          63.6759   85.1307   14.0605 C.ar    1  UNL1        0.0111
     25 C          63.3167   86.0905   12.9652 C.ar    1  UNL1       -0.0015
     26 C          61.9851   86.0227    9.2339 C.ar    1  UNL1       -0.0003
     27 C          63.0101   85.3423    8.3757 C.ar    1  UNL1       -0.0024
     28 C          62.6295   84.8251    7.0201 C.ar    1  UNL1       -0.0003
     29 C          61.2238   84.9882    6.5227 C.ar    1  UNL1       -0.0000
     30 C          60.1987   85.6686    7.3809 C.ar    1  UNL1       -0.0003
     31 C          60.5794   86.1858    8.7365 C.ar    1  UNL1       -0.0024
@<TRIPOS>BOND
     1     6     7    2
     2     7    10    1
     3    10    11    1
     4    11    12    1
     5    12    13   ar
     6    13    14   ar
     7    14    15   ar
     8    15    16   ar
     9    16    17   ar
    10     7     8   am
    11     8     5    1
    12     5     1    1
    13     1     2    2
    14     1     3   am
    15     3    18    1
    16    18    26    1
    17    26    27   ar
    18    27    28   ar
    19    28    29   ar
    20    29    30   ar
    21    30    31   ar
    22    18    19    1
    23    19    20   ar
    24    20    21   ar
    25    21    22   ar
    26    22    23    1
    27    22    24   ar
    28    24    25   ar
    29    17    12   ar
    30    31    26   ar
    31    25    19   ar
    32     8     9    1
    33     3     4    1
@<TRIPOS>MOLECULE
*****
 31 33 0 0 0
SMALL
GASTEIGER

@<TRIPOS>ATOM
      1 C          63.3235   88.7760   14.9191 C.2     1  UNL1        0.2430
      2 O          62.4052   89.9125   15.2583 O.2     1  UNL1       -0.2732
      3 N          63.8548   88.6318   13.5239 N.am    1  UNL1       -0.2972
      4 H          64.4575   87.8859   13.3013 H       1  UNL1        0.1500
      5 C          63.7104   87.7836   15.9754 C.3     1  UNL1        0.1756
      6 O          61.5671   85.9360   16.9715 O.2     1  UNL1       -0.2751
      7 C          62.6962   85.3977   16.1437 C.2     1  UNL1        0.2231
      8 N          63.7679   86.3215   15.6456 N.am    1  UNL1       -0.2966
      9 H          64.5090   85.9681   15.1024 H       1  UNL1        0.1499
     10 C          62.7537   83.9354   15.8140 C.3     1  UNL1        0.0897
     11 C          63.9327   83.3797   15.0718 C.3     1  UNL1        0.0359
     12 C          63.7560   82.8284   13.6880 C.ar    1  UNL1       -0.0217
     13 C          64.3857   83.5238   12.5176 C.ar    1  UNL1       -0.0043
     14 C          64.2089   82.9724   11.1338 C.ar    1  UNL1       -0.0003
     15 C          63.4025   81.7258   10.9205 C.ar    1  UNL1       -0.0000
     16 C          62.7729   81.0304   12.0910 C.ar    1  UNL1       -0.0003
     17 C          62.9496   81.5817   13.4747 C.ar    1  UNL1       -0.0043
     18 C          63.4678   89.6242   12.4678 C.3     1  UNL1        0.1169
     19 C          64.2450   90.8980   12.3147 C.ar    1  UNL1       -0.0003
     20 C          64.2206   91.6395   11.0110 C.ar    1  UNL1       -0.0015
     21 C          64.9977   92.9133   10.8580 C.ar    1  UNL1        0.0111
     22 C          65.7993   93.4457   12.0086 C.ar    1  UNL1        0.0577
     23 CL         66.5764   94.7195   11.8556 Cl      1  UNL1       -0.0822
     24 C          65.8237   92.7042   13.3124 C.ar    1  UNL1        0.0111
     25 C          65.0466   91.4304   13.4654 C.ar    1  UNL1       -0.0015
     26 C          62.3037   89.3428   11.5646 C.ar    1  UNL1       -0.0003
     27 C          62.4221   88.3026   10.4904 C.ar    1  UNL1       -0.0024
     28 C          61.2580   88.0212    9.5872 C.ar    1  UNL1       -0.0003
     29 C          59.9754   88.7800    9.7584 C.ar    1  UNL1       -0.0000
     30 C          59.8570   89.8201   10.8327 C.ar    1  UNL1       -0.0003
     31 C          61.0211   90.1015   11.7358 C.ar    1  UNL1       -0.0024
@<TRIPOS>BOND
     1     6     7    2
     2     7    10    1
     3    10    11    1
     4    11    12    1
     5    12    13   ar
     6    13    14   ar
     7    14    15   ar
     8    15    16   ar
     9    16    17   ar
    10     7     8   am
    11     8     5    1
    12     5     1    1
    13     1     2    2
    14     1     3   am
    15     3    18    1
    16    18    26    1
    17    26    27   ar
    18    27    28   ar
    19    28    29   ar
    20    29    30   ar
    21    30    31   ar
    22    18    19    1
    23    19    20   ar
    24    20    21   ar
    25    21    22   ar
    26    22    23    1
    27    22    24   ar
    28    24    25   ar
    29    17    12   ar
    30    31    26   ar
    31    25    19   ar
    32     8     9    1
    33     3     4    1
@<TRIPOS>MOLECULE
*****
 31 33 0 0 0
SMALL
GASTEIGER

@<TRIPOS>ATOM
      1 C          62.1016   89.7076   12.7453 C.2     1  UNL1        0.2430
      2 O          63.0542   88.7027   12.1685 O.2     1  UNL1       -0.2732
      3 N          62.3527   90.2832   14.1075 N.am    1  UNL1       -0.2972
      4 H          61.7274   90.9428   14.4861 H       1  UNL1        0.1500
      5 C          60.8978   90.1368   11.9599 C.3     1  UNL1        0.1756
      6 O          61.6037   89.7365    9.0718 O.2     1  UNL1       -0.2751
      7 C          60.4971   88.9355    9.6914 C.2     1  UNL1        0.2231
      8 N          60.1442   89.1357   11.1355 N.am    1  UNL1       -0.2966
      9 H          59.4179   88.6100   11.5421 H       1  UNL1        0.1499
     10 C          59.7435   87.9344    8.8669 C.3     1  UNL1        0.0897
     11 C          60.4791   86.8212    8.1816 C.3     1  UNL1        0.0359
     12 C          61.4553   85.9818    8.9514 C.ar    1  UNL1       -0.0217
     13 C          61.3128   85.8388   10.4377 C.ar    1  UNL1       -0.0043
     14 C          62.2889   84.9994   11.2074 C.ar    1  UNL1       -0.0003
     15 C          63.4075   84.3029   10.4908 C.ar    1  UNL1       -0.0000
     16 C          63.5500   84.4458    9.0044 C.ar    1  UNL1       -0.0003
     17 C          62.5739   85.2853    8.2347 C.ar    1  UNL1       -0.0043
     18 C          63.5564   89.8540   14.8928 C.3     1  UNL1        0.1169
     19 C          64.6958   90.8073   15.1000 C.ar    1  UNL1       -0.0003
     20 C          64.6828   91.7492   16.2674 C.ar    1  UNL1       -0.0015
     21 C          65.8222   92.7025   16.4746 C.ar    1  UNL1        0.0111
     22 C          66.9745   92.7140   15.5145 C.ar    1  UNL1        0.0577
     23 CL         68.1139   93.6673   15.7217 Cl      1  UNL1       -0.0822
     24 C          66.9876   91.7721   14.3471 C.ar    1  UNL1        0.0111
     25 C          65.8482   90.8188   14.1399 C.ar    1  UNL1       -0.0015
     26 C          63.6207   88.4713   15.4710 C.ar    1  UNL1       -0.0003
     27 C          64.3647   87.3892   14.7462 C.ar    1  UNL1       -0.0024
     28 C          64.4291   86.0065   15.3244 C.ar    1  UNL1       -0.0003
     29 C          63.7494   85.7061   16.6274 C.ar    1  UNL1       -0.0000
     30 C          63.0054   86.7884   17.3522 C.ar    1  UNL1       -0.0003
     31 C          62.9410   88.1709   16.7740 C.ar    1  UNL1       -0.0024
@<TRIPOS>BOND
     1     6     7    2
     2     7    10    1
     3    10    11    1
     4    11    12    1
     5    12    13   ar
     6    13    14   ar
     7    14    15   ar
     8    15    16   ar
     9    16    17   ar
    10     7     8   am
    11     8     5    1
    12     5     1    1
    13     1     2    2
    14     1     3   am
    15     3    18    1
    16    18    26    1
    17    26    27   ar
    18    27    28   ar
    19    28    29   ar
    20    29    30   ar
    21    30    31   ar
    22    18    19    1
    23    19    20   ar
    24    20    21   ar
    25    21    22   ar
    26    22    23    1
    27    22    24   ar
    28    24    25   ar
    29    17    12   ar
    30    31    26   ar
    31    25    19   ar
    32     8     9    1
    33     3     4    1
@<TRIPOS>MOLECULE
*****
 31 33 0 0 0
SMALL
GASTEIGER

@<TRIPOS>ATOM
      1 C          64.2571   90.7146   13.1977 C.2     1  UNL1        0.2430
      2 O          65.3170   90.2149   14.1341 O.2     1  UNL1       -0.2732
      3 N          64.4928   91.9586   12.3934 N.am    1  UNL1       -0.2972
      4 H          63.7971   92.2866   11.7788 H       1  UNL1        0.1500
      5 C          62.9615   89.9703   13.0655 C.3     1  UNL1        0.1756
      6 O          61.6900   90.1490   10.3542 O.2     1  UNL1       -0.2751
      7 C          62.2459   88.8422   10.8372 C.2     1  UNL1        0.2231
      8 N          62.8816   88.7528   12.1929 N.am    1  UNL1       -0.2966
      9 H          63.2464   87.8952   12.5099 H       1  UNL1        0.1499
     10 C          62.1660   87.6247    9.9646 C.3     1  UNL1        0.0897
     11 C          61.6133   86.3431   10.5140 C.3     1  UNL1        0.0359
     12 C          62.5361   85.2046   10.8341 C.ar    1  UNL1       -0.0217
     13 C          62.7920   84.8254   12.2626 C.ar    1  UNL1       -0.0043
     14 C          63.7147   83.6870   12.5827 C.ar    1  UNL1       -0.0003
     15 C          64.3816   82.9277   11.4742 C.ar    1  UNL1       -0.0000
     16 C          64.1258   83.3069   10.0457 C.ar    1  UNL1       -0.0003
     17 C          63.2030   84.4453    9.7256 C.ar    1  UNL1       -0.0043
     18 C          65.7883   92.7029   12.5257 C.3     1  UNL1        0.1169
     19 C          66.2542   93.6004   11.4177 C.ar    1  UNL1       -0.0003
     20 C          66.9145   93.0142   10.2052 C.ar    1  UNL1       -0.0015
     21 C          67.3804   93.9116    9.0972 C.ar    1  UNL1        0.0111
     22 C          67.1859   95.3953    9.2018 C.ar    1  UNL1        0.0577
     23 CL         67.6517   96.2927    8.0938 Cl      1  UNL1       -0.0822
     24 C          66.5255   95.9815   10.4144 C.ar    1  UNL1        0.0111
     25 C          66.0596   95.0841   11.5223 C.ar    1  UNL1       -0.0015
     26 C          66.6181   92.5498   13.7659 C.ar    1  UNL1       -0.0003
     27 C          67.9909   91.9513   13.6807 C.ar    1  UNL1       -0.0024
     28 C          68.8206   91.7982   14.9209 C.ar    1  UNL1       -0.0003
     29 C          68.2776   92.2436   16.2463 C.ar    1  UNL1       -0.0000
     30 C          66.9047   92.8420   16.3315 C.ar    1  UNL1       -0.0003
     31 C          66.0750   92.9951   15.0913 C.ar    1  UNL1       -0.0024
@<TRIPOS>BOND
     1     6     7    2
     2     7    10    1
     3    10    11    1
     4    11    12    1
     5    12    13   ar
     6    13    14   ar
     7    14    15   ar
     8    15    16   ar
     9    16    17   ar
    10     7     8   am
    11     8     5    1
    12     5     1    1
    13     1     2    2
    14     1     3   am
    15     3    18    1
    16    18    26    1
    17    26    27   ar
    18    27    28   ar
    19    28    29   ar
    20    29    30   ar
    21    30    31   ar
    22    18    19    1
    23    19    20   ar
    24    20    21   ar
    25    21    22   ar
    26    22    23    1
    27    22    24   ar
    28    24    25   ar
    29    17    12   ar
    30    31    26   ar
    31    25    19   ar
    32     8     9    1
    33     3     4    1
@<TRIPOS>MOLECULE
*****
 31 33 0 0 0
SMALL
GASTEIGER

@<TRIPOS>ATOM
      1 C          61.6847   88.4936   10.9116 C.2     1  UNL1        0.2430
      2 O          62.6517   88.5368    9.7657 O.2     1  UNL1       -0.2732
      3 N          61.3458   87.1832   11.5579 N.am    1  UNL1       -0.2972
      4 H          60.7111   87.1549   12.3100 H       1  UNL1        0.1500
      5 C          61.0567   89.7610   11.4111 C.3     1  UNL1        0.1756
      6 O          63.4383   88.9948   13.0665 O.2     1  UNL1       -0.2751
      7 C          63.1004   90.4420   12.8634 C.2     1  UNL1        0.2231
      8 N          61.9096   90.8252   12.0357 N.am    1  UNL1       -0.2966
      9 H          61.6879   91.7750   11.9024 H       1  UNL1        0.1499
     10 C          63.9534   91.5062   13.4881 C.3     1  UNL1        0.0897
     11 C          65.3527   91.7302   12.9966 C.3     1  UNL1        0.0359
     12 C          66.4486   92.0452   13.9713 C.ar    1  UNL1       -0.0217
     13 C          66.1094   92.4942   15.3617 C.ar    1  UNL1       -0.0043
     14 C          67.2053   92.8092   16.3363 C.ar    1  UNL1       -0.0003
     15 C          68.6402   92.6752   15.9205 C.ar    1  UNL1       -0.0000
     16 C          68.9794   92.2262   14.5301 C.ar    1  UNL1       -0.0003
     17 C          67.8836   91.9113   13.5555 C.ar    1  UNL1       -0.0043
     18 C          61.9737   85.9159   11.0584 C.3     1  UNL1        0.1169
     19 C          61.9111   85.5721    9.5997 C.ar    1  UNL1       -0.0003
     20 C          60.6599   85.8437    8.8182 C.ar    1  UNL1       -0.0015
     21 C          60.5972   85.4999    7.3595 C.ar    1  UNL1        0.0111
     22 C          61.7857   84.8845    6.6822 C.ar    1  UNL1        0.0577
     23 CL         61.7230   84.5407    5.2235 Cl      1  UNL1       -0.0822
     24 C          63.0370   84.6129    7.4637 C.ar    1  UNL1        0.0111
     25 C          63.0997   84.9567    8.9224 C.ar    1  UNL1       -0.0015
     26 C          62.6645   84.9924   12.0176 C.ar    1  UNL1       -0.0003
     27 C          62.5844   83.5078   11.8188 C.ar    1  UNL1       -0.0024
     28 C          63.2751   82.5843   12.7780 C.ar    1  UNL1       -0.0003
     29 C          64.0459   83.1454   13.9360 C.ar    1  UNL1       -0.0000
     30 C          64.1260   84.6300   14.1348 C.ar    1  UNL1       -0.0003
     31 C          63.4353   85.5535   13.1757 C.ar    1  UNL1       -0.0024
@<TRIPOS>BOND
     1     6     7    2
     2     7    10    1
     3    10    11    1
     4    11    12    1
     5    12    13   ar
     6    13    14   ar
     7    14    15   ar
     8    15    16   ar
     9    16    17   ar
    10     7     8   am
    11     8     5    1
    12     5     1    1
    13     1     2    2
    14     1     3   am
    15     3    18    1
    16    18    26    1
    17    26    27   ar
    18    27    28   ar
    19    28    29   ar
    20    29    30   ar
    21    30    31   ar
    22    18    19    1
    23    19    20   ar
    24    20    21   ar
    25    21    22   ar
    26    22    23    1
    27    22    24   ar
    28    24    25   ar
    29    17    12   ar
    30    31    26   ar
    31    25    19   ar
    32     8     9    1
    33     3     4    1
@<TRIPOS>MOLECULE
*****
 31 33 0 0 0
SMALL
GASTEIGER

@<TRIPOS>ATOM
      1 C          61.8971   88.6677   10.9363 C.2     1  UNL1        0.2430
      2 O          62.7883   88.6151    9.7309 O.2     1  UNL1       -0.2732
      3 N          61.5409   87.4039   11.6614 N.am    1  UNL1       -0.2972
      4 H          60.9560   87.4384   12.4525 H       1  UNL1        0.1500
      5 C          61.3621   89.9842   11.4166 C.3     1  UNL1        0.1756
      6 O          63.8803   89.4870   12.9694 O.2     1  UNL1       -0.2751
      7 C          63.5622   90.8683   12.4786 C.2     1  UNL1        0.2231
      8 N          62.3031   91.1169   11.7023 N.am    1  UNL1       -0.2966
      9 H          62.0943   92.0235   11.3802 H       1  UNL1        0.1499
     10 C          64.5032   92.0010   12.7644 C.3     1  UNL1        0.0897
     11 C          65.9534   91.8812   12.4004 C.3     1  UNL1        0.0359
     12 C          66.5438   92.7898   11.3631 C.ar    1  UNL1       -0.0217
     13 C          66.1682   94.2417   11.3364 C.ar    1  UNL1       -0.0043
     14 C          66.7586   95.1502   10.2992 C.ar    1  UNL1       -0.0003
     15 C          67.7247   94.6068    9.2886 C.ar    1  UNL1       -0.0000
     16 C          68.1004   93.1549    9.3152 C.ar    1  UNL1       -0.0003
     17 C          67.5099   92.2464   10.3525 C.ar    1  UNL1       -0.0043
     18 C          62.0759   86.0874   11.1811 C.3     1  UNL1        0.1169
     19 C          61.9633   85.7157    9.7322 C.ar    1  UNL1       -0.0003
     20 C          63.1248   85.0782    9.0291 C.ar    1  UNL1       -0.0015
     21 C          63.0123   84.7065    7.5802 C.ar    1  UNL1        0.0111
     22 C          61.7383   84.9723    6.8345 C.ar    1  UNL1        0.0577
     23 CL         61.6257   84.6006    5.3857 Cl      1  UNL1       -0.0822
     24 C          60.5767   85.6099    7.5377 C.ar    1  UNL1        0.0111
     25 C          60.6892   85.9816    8.9865 C.ar    1  UNL1       -0.0015
     26 C          62.7234   85.1426   12.1497 C.ar    1  UNL1       -0.0003
     27 C          63.5319   85.6788   13.2937 C.ar    1  UNL1       -0.0024
     28 C          64.1794   84.7339   14.2623 C.ar    1  UNL1       -0.0003
     29 C          64.0185   83.2530   14.0867 C.ar    1  UNL1       -0.0000
     30 C          63.2100   82.7168   12.9426 C.ar    1  UNL1       -0.0003
     31 C          62.5625   83.6616   11.9741 C.ar    1  UNL1       -0.0024
@<TRIPOS>BOND
     1     6     7    2
     2     7    10    1
     3    10    11    1
     4    11    12    1
     5    12    13   ar
     6    13    14   ar
     7    14    15   ar
     8    15    16   ar
     9    16    17   ar
    10     7     8   am
    11     8     5    1
    12     5     1    1
    13     1     2    2
    14     1     3   am
    15     3    18    1
    16    18    26    1
    17    26    27   ar
    18    27    28   ar
    19    28    29   ar
    20    29    30   ar
    21    30    31   ar
    22    18    19    1
    23    19    20   ar
    24    20    21   ar
    25    21    22   ar
    26    22    23    1
    27    22    24   ar
    28    24    25   ar
    29    17    12   ar
    30    31    26   ar
    31    25    19   ar
    32     8     9    1
    33     3     4    1
