@<TRIPOS>MOLECULE
*****
 29 31 0 0 0
SMALL
GASTEIGER

@<TRIPOS>ATOM
      1 C          63.8549   89.4959   15.0329 C.2     1  UNL1        0.2309
      2 O          62.4899   89.3351   15.6336 O.2     1  UNL1       -0.2744
      3 N          64.6574   88.2848   14.6594 N.am    1  UNL1       -0.2787
      4 H          65.5534   88.3903   14.2652 H       1  UNL1        0.1553
      5 C          64.0948   86.9130   14.8866 C.ar    1  UNL1        0.0807
      6 C          63.9256   85.8461   13.8460 C.ar    1  UNL1        0.0219
      7 C          63.3289   84.6409   14.5105 C.ar    1  UNL1        0.0084
      8 C          63.1293   84.9631   15.9619 C.ar    1  UNL1        0.0367
      9 S          63.6027   86.3673   16.1943 S.2     1  UNL1       -0.0717
     10 C          62.9910   83.3417   13.8412 C.ar    1  UNL1        0.0045
     11 C          62.2020   82.3009   14.5788 C.ar    1  UNL1        0.0208
     12 C          61.8641   81.0018   13.9096 C.ar    1  UNL1        0.0998
     13 N          62.3154   80.7433   12.5025 N.ar    1  UNL1       -0.2324
     14 C          63.1044   81.7841   11.7649 C.ar    1  UNL1        0.1384
     15 CL         63.5556   81.5257   10.3579 Cl      1  UNL1       -0.0613
     16 C          63.4422   83.0833   12.4342 C.ar    1  UNL1        0.0308
     17 C          64.4175   90.8677   14.8057 C.3     1  UNL1        0.1117
     18 C          65.7499   92.9820   11.7228 C.ar    1  UNL1        0.0641
     19 C          64.8964   92.4378   10.6158 C.ar    1  UNL1        0.0158
     20 C          63.8833   91.3702   10.9055 C.ar    1  UNL1        0.0010
     21 C          63.7237   90.8468   12.3021 C.ar    1  UNL1       -0.0037
     22 C          64.5771   91.3910   13.4090 C.ar    1  UNL1       -0.0118
     23 C          65.5903   92.4586   13.1194 C.ar    1  UNL1        0.0121
     24 N          66.7630   94.0495   11.4331 N.pl3   1  UNL1       -0.2187
     25 H          67.2142   94.5141   12.1746 H       1  UNL1        0.1734
     26 C          67.4144   94.7688    8.5944 C.3     1  UNL1        0.1996
     27 S          67.0887   94.4092   10.0138 S.O2    1  UNL1        0.0558
     28 O          68.1251   93.3256    9.9770 O.2     1  UNL1       -0.1544
     29 O          66.0522   95.4928   10.0506 O.2     1  UNL1       -0.1544
@<TRIPOS>BOND
     1    26    27    1
     2    27    28    2
     3    27    29    2
     4    27    24    1
     5    24    18    1
     6    18    19   ar
     7    19    20   ar
     8    20    21   ar
     9    21    22   ar
    10    22    17    1
    11    17     1    1
    12     1     2    2
    13     1     3   am
    14     3     5    1
    15     5     6   ar
    16     6     7   ar
    17     7    10    1
    18    10    11   ar
    19    11    12   ar
    20    12    13   ar
    21    13    14   ar
    22    14    15    1
    23    14    16   ar
    24     7     8   ar
    25     8     9   ar
    26    22    23   ar
    27    23    18   ar
    28     9     5   ar
    29    16    10   ar
    30    24    25    1
    31     3     4    1
@<TRIPOS>MOLECULE
*****
 29 31 0 0 0
SMALL
GASTEIGER

@<TRIPOS>ATOM
      1 C          63.6642   89.6852   15.2571 C.2     1  UNL1        0.2309
      2 O          62.4094   89.3135   15.9901 O.2     1  UNL1       -0.2744
      3 N          64.5349   88.6141   14.6698 N.am    1  UNL1       -0.2787
      4 H          65.3585   88.8581   14.1887 H       1  UNL1        0.1553
      5 C          64.1508   87.1715   14.8155 C.ar    1  UNL1        0.0807
      6 C          63.9676   86.1905   13.6957 C.ar    1  UNL1        0.0219
      7 C          63.5860   84.8693   14.2947 C.ar    1  UNL1        0.0084
      8 C          63.5333   85.0338   15.7848 C.ar    1  UNL1        0.0367
      9 S          63.8823   86.4566   16.1066 S.2     1  UNL1       -0.0717
     10 C          63.3061   83.6055   13.5367 C.ar    1  UNL1        0.0045
     11 C          63.9813   83.3549   12.2209 C.ar    1  UNL1        0.0208
     12 C          63.7016   82.0912   11.4630 C.ar    1  UNL1        0.0998
     13 N          62.7465   81.0778   12.0208 N.ar    1  UNL1       -0.2324
     14 C          62.0713   81.3284   13.3366 C.ar    1  UNL1        0.1384
     15 CL         61.1163   80.3151   13.8944 Cl      1  UNL1       -0.0613
     16 C          62.3511   82.5922   14.0945 C.ar    1  UNL1        0.0308
     17 C          64.0483   91.1278   15.1114 C.3     1  UNL1        0.1117
     18 C          66.2134   92.3033   12.0000 C.ar    1  UNL1        0.0641
     19 C          67.5938   92.2681   12.5858 C.ar    1  UNL1        0.0158
     20 C          67.7925   91.8528   14.0134 C.ar    1  UNL1        0.0010
     21 C          66.6107   91.4727   14.8552 C.ar    1  UNL1       -0.0037
     22 C          65.2302   91.5079   14.2695 C.ar    1  UNL1       -0.0118
     23 C          65.0316   91.9232   12.8419 C.ar    1  UNL1        0.0121
     24 N          66.0148   92.7186   10.5724 N.pl3   1  UNL1       -0.2187
     25 H          65.4584   92.1704    9.9732 H       1  UNL1        0.1734
     26 C          67.3130   95.2198    9.5433 C.3     1  UNL1        0.1996
     27 S          66.6638   93.9692   10.0579 S.O2    1  UNL1        0.0558
     28 O          67.6076   93.1415    9.2369 O.2     1  UNL1       -0.1544
     29 O          65.7200   94.7968   10.8789 O.2     1  UNL1       -0.1544
@<TRIPOS>BOND
     1    26    27    1
     2    27    28    2
     3    27    29    2
     4    27    24    1
     5    24    18    1
     6    18    19   ar
     7    19    20   ar
     8    20    21   ar
     9    21    22   ar
    10    22    17    1
    11    17     1    1
    12     1     2    2
    13     1     3   am
    14     3     5    1
    15     5     6   ar
    16     6     7   ar
    17     7    10    1
    18    10    11   ar
    19    11    12   ar
    20    12    13   ar
    21    13    14   ar
    22    14    15    1
    23    14    16   ar
    24     7     8   ar
    25     8     9   ar
    26    22    23   ar
    27    23    18   ar
    28     9     5   ar
    29    16    10   ar
    30    24    25    1
    31     3     4    1
@<TRIPOS>MOLECULE
*****
 29 31 0 0 0
SMALL
GASTEIGER

@<TRIPOS>ATOM
      1 C          63.8333   89.5073   13.7890 C.2     1  UNL1        0.2309
      2 O          63.8605   88.0161   13.6292 O.2     1  UNL1       -0.2744
      3 N          62.8037   90.3209   13.0621 N.am    1  UNL1       -0.2787
      4 H          62.7858   91.2996   13.1670 H       1  UNL1        0.1553
      5 C          61.8016   89.6432   12.1754 C.ar    1  UNL1        0.0807
      6 C          62.1144   88.7064   11.0464 C.ar    1  UNL1        0.0219
      7 C          60.8168   88.2675   10.4352 C.ar    1  UNL1        0.0084
      8 C          59.7019   88.9330   11.1865 C.ar    1  UNL1        0.0367
      9 S          60.3106   89.7832   12.2619 S.2     1  UNL1       -0.0717
     10 C          60.6612   87.3281    9.2762 C.ar    1  UNL1        0.0045
     11 C          59.3561   87.2541    8.5405 C.ar    1  UNL1        0.0208
     12 C          59.2005   86.3148    7.3816 C.ar    1  UNL1        0.0998
     13 N          60.3502   85.4492    6.9581 N.ar    1  UNL1       -0.2324
     14 C          61.6553   85.5231    7.6937 C.ar    1  UNL1        0.1384
     15 CL         62.8049   84.6576    7.2703 Cl      1  UNL1       -0.0613
     16 C          61.8108   86.4626    8.8528 C.ar    1  UNL1        0.0308
     17 C          64.8354   90.1850   14.6757 C.3     1  UNL1        0.1117
     18 C          65.8127   93.3238   12.4525 C.ar    1  UNL1        0.0641
     19 C          66.7057   94.0729   13.3965 C.ar    1  UNL1        0.0158
     20 C          66.9753   93.5261   14.7670 C.ar    1  UNL1        0.0010
     21 C          66.3519   92.2301   15.1934 C.ar    1  UNL1       -0.0037
     22 C          65.4589   91.4810   14.2494 C.ar    1  UNL1       -0.0118
     23 C          65.1893   92.0279   12.8789 C.ar    1  UNL1        0.0121
     24 N          65.5430   93.8707   11.0820 N.pl3   1  UNL1       -0.2187
     25 H          64.6162   94.0161   10.7836 H       1  UNL1        0.1734
     26 C          67.8281   94.5214    9.2502 C.3     1  UNL1        0.1996
     27 S          66.6856   94.1960   10.1661 S.O2    1  UNL1        0.0558
     28 O          66.3441   95.6537   10.2580 O.2     1  UNL1       -0.1544
     29 O          67.0270   92.7383   10.0742 O.2     1  UNL1       -0.1544
@<TRIPOS>BOND
     1    26    27    1
     2    27    28    2
     3    27    29    2
     4    27    24    1
     5    24    18    1
     6    18    19   ar
     7    19    20   ar
     8    20    21   ar
     9    21    22   ar
    10    22    17    1
    11    17     1    1
    12     1     2    2
    13     1     3   am
    14     3     5    1
    15     5     6   ar
    16     6     7   ar
    17     7    10    1
    18    10    11   ar
    19    11    12   ar
    20    12    13   ar
    21    13    14   ar
    22    14    15    1
    23    14    16   ar
    24     7     8   ar
    25     8     9   ar
    26    22    23   ar
    27    23    18   ar
    28     9     5   ar
    29    16    10   ar
    30    24    25    1
    31     3     4    1
@<TRIPOS>MOLECULE
*****
 29 31 0 0 0
SMALL
GASTEIGER

@<TRIPOS>ATOM
      1 C          62.1797   86.6952   10.5282 C.2     1  UNL1        0.2309
      2 O          62.4954   87.3509    9.2166 O.2     1  UNL1       -0.2744
      3 N          62.2841   87.4790   11.8029 N.am    1  UNL1       -0.2787
      4 H          62.0768   87.0486   12.6638 H       1  UNL1        0.1553
      5 C          62.7042   88.9184   11.7660 C.ar    1  UNL1        0.0807
      6 C          63.8361   89.5266   12.5400 C.ar    1  UNL1        0.0219
      7 C          63.8977   90.9865   12.2010 C.ar    1  UNL1        0.0084
      8 C          62.8040   91.2806   11.2174 C.ar    1  UNL1        0.0367
      9 S          62.0664   90.0024   10.9486 S.2     1  UNL1       -0.0717
     10 C          64.8806   91.9782   12.7492 C.ar    1  UNL1        0.0045
     11 C          65.4232   93.0628   11.8665 C.ar    1  UNL1        0.0208
     12 C          66.4059   94.0545   12.4146 C.ar    1  UNL1        0.0998
     13 N          66.8462   93.9617   13.8457 N.ar    1  UNL1       -0.2324
     14 C          66.3036   92.8771   14.7284 C.ar    1  UNL1        0.1384
     15 CL         66.7438   92.7842   16.1593 Cl      1  UNL1       -0.0613
     16 C          65.3208   91.8853   14.1801 C.ar    1  UNL1        0.0308
     17 C          61.7595   85.2557   10.5652 C.3     1  UNL1        0.1117
     18 C          63.5760   83.3086   13.5078 C.ar    1  UNL1        0.0641
     19 C          64.2824   82.2305   12.7407 C.ar    1  UNL1        0.0158
     20 C          64.1479   82.1608   11.2484 C.ar    1  UNL1        0.0010
     21 C          63.3069   83.1691   10.5232 C.ar    1  UNL1       -0.0037
     22 C          62.6005   84.2473   11.2903 C.ar    1  UNL1       -0.0118
     23 C          62.7350   84.3170   12.7827 C.ar    1  UNL1        0.0121
     24 N          63.7105   83.3784   15.0002 N.pl3   1  UNL1       -0.2187
     25 H          63.8550   82.5552   15.5204 H       1  UNL1        0.1734
     26 C          63.5393   86.0265   16.3996 C.3     1  UNL1        0.1996
     27 S          63.6249   84.7024   15.6998 S.O2    1  UNL1        0.0558
     28 O          64.9420   85.1025   15.1038 O.2     1  UNL1       -0.1544
     29 O          62.3079   84.3023   16.2958 O.2     1  UNL1       -0.1544
@<TRIPOS>BOND
     1    26    27    1
     2    27    28    2
     3    27    29    2
     4    27    24    1
     5    24    18    1
     6    18    19   ar
     7    19    20   ar
     8    20    21   ar
     9    21    22   ar
    10    22    17    1
    11    17     1    1
    12     1     2    2
    13     1     3   am
    14     3     5    1
    15     5     6   ar
    16     6     7   ar
    17     7    10    1
    18    10    11   ar
    19    11    12   ar
    20    12    13   ar
    21    13    14   ar
    22    14    15    1
    23    14    16   ar
    24     7     8   ar
    25     8     9   ar
    26    22    23   ar
    27    23    18   ar
    28     9     5   ar
    29    16    10   ar
    30    24    25    1
    31     3     4    1
@<TRIPOS>MOLECULE
*****
 29 31 0 0 0
SMALL
GASTEIGER

@<TRIPOS>ATOM
      1 C          62.8184   89.9443   12.0617 C.2     1  UNL1        0.2309
      2 O          62.5707   89.3855   13.4315 O.2     1  UNL1       -0.2744
      3 N          62.7456   89.0475   10.8615 N.am    1  UNL1       -0.2787
      4 H          62.9082   89.4142    9.9624 H       1  UNL1        0.1553
      5 C          62.4251   87.5920   11.0311 C.ar    1  UNL1        0.0807
      6 C          62.9913   86.6809   12.0796 C.ar    1  UNL1        0.0219
      7 C          62.3983   85.3179   11.8785 C.ar    1  UNL1        0.0084
      8 C          61.4655   85.3865   10.7057 C.ar    1  UNL1        0.0367
      9 S          61.4821   86.7920   10.1820 S.2     1  UNL1       -0.0717
     10 C          62.6872   84.0999   12.7051 C.ar    1  UNL1        0.0045
     11 C          63.1363   84.2488   14.1285 C.ar    1  UNL1        0.0208
     12 C          63.4253   83.0310   14.9551 C.ar    1  UNL1        0.0998
     13 N          63.2652   81.6641   14.3582 N.ar    1  UNL1       -0.2324
     14 C          62.8161   81.5153   12.9348 C.ar    1  UNL1        0.1384
     15 CL         62.6560   80.1485   12.3379 Cl      1  UNL1       -0.0613
     16 C          62.5271   82.7332   12.1082 C.ar    1  UNL1        0.0308
     17 C          63.1389   91.3998   11.8921 C.3     1  UNL1        0.1117
     18 C          66.8373   92.0323   13.1851 C.ar    1  UNL1        0.0641
     19 C          67.4157   92.7927   12.0287 C.ar    1  UNL1        0.0158
     20 C          66.5685   93.0888   10.8268 C.ar    1  UNL1        0.0010
     21 C          65.1430   92.6245   10.7813 C.ar    1  UNL1       -0.0037
     22 C          64.5646   91.8641   11.9376 C.ar    1  UNL1       -0.0118
     23 C          65.4118   91.5680   13.1395 C.ar    1  UNL1        0.0121
     24 N          67.6845   91.7361   14.3870 N.pl3   1  UNL1       -0.2187
     25 H          67.8615   90.8032   14.6467 H       1  UNL1        0.1734
     26 C          68.8398   93.9869   15.9992 C.3     1  UNL1        0.1996
     27 S          68.2621   92.8615   15.1931 S.O2    1  UNL1        0.0558
     28 O          69.5675   92.7094   14.4701 O.2     1  UNL1       -0.1544
     29 O          66.9568   93.0136   15.9161 O.2     1  UNL1       -0.1544
@<TRIPOS>BOND
     1    26    27    1
     2    27    28    2
     3    27    29    2
     4    27    24    1
     5    24    18    1
     6    18    19   ar
     7    19    20   ar
     8    20    21   ar
     9    21    22   ar
    10    22    17    1
    11    17     1    1
    12     1     2    2
    13     1     3   am
    14     3     5    1
    15     5     6   ar
    16     6     7   ar
    17     7    10    1
    18    10    11   ar
    19    11    12   ar
    20    12    13   ar
    21    13    14   ar
    22    14    15    1
    23    14    16   ar
    24     7     8   ar
    25     8     9   ar
    26    22    23   ar
    27    23    18   ar
    28     9     5   ar
    29    16    10   ar
    30    24    25    1
    31     3     4    1
@<TRIPOS>MOLECULE
*****
 29 31 0 0 0
SMALL
GASTEIGER

@<TRIPOS>ATOM
      1 C          63.2016   88.9541   12.7821 C.2     1  UNL1        0.2309
      2 O          62.4830   88.1156   11.7669 O.2     1  UNL1       -0.2744
      3 N          63.9470   88.2966   13.9056 N.am    1  UNL1       -0.2787
      4 H          64.4186   88.8469   14.5719 H       1  UNL1        0.1553
      5 C          63.9738   86.8008   14.0139 C.ar    1  UNL1        0.0807
      6 C          63.6063   85.8317   12.9296 C.ar    1  UNL1        0.0219
      7 C          63.7782   84.4434   13.4710 C.ar    1  UNL1        0.0084
      8 C          64.2520   84.5545   14.8899 C.ar    1  UNL1        0.0367
      9 S          64.3729   86.0115   15.2254 S.2     1  UNL1       -0.0717
     10 C          63.5213   83.1679   12.7246 C.ar    1  UNL1        0.0045
     11 C          63.8830   83.0627   11.2727 C.ar    1  UNL1        0.0208
     12 C          63.6262   81.7873   10.5262 C.ar    1  UNL1        0.0998
     13 N          63.0077   80.6168   11.2318 N.ar    1  UNL1       -0.2324
     14 C          62.6461   80.7220   12.6837 C.ar    1  UNL1        0.1384
     15 CL         62.0277   79.5516   13.3892 Cl      1  UNL1       -0.0613
     16 C          62.9029   81.9975   13.4301 C.ar    1  UNL1        0.0308
     17 C          63.1747   90.4499   12.6739 C.3     1  UNL1        0.1117
     18 C          66.7346   91.8547   13.7244 C.ar    1  UNL1        0.0641
     19 C          67.0305   92.7679   12.5717 C.ar    1  UNL1        0.0158
     20 C          66.0410   92.9083   11.4531 C.ar    1  UNL1        0.0010
     21 C          64.7558   92.1357   11.4871 C.ar    1  UNL1       -0.0037
     22 C          64.4600   91.2226   12.6398 C.ar    1  UNL1       -0.0118
     23 C          65.4494   91.0821   13.7584 C.ar    1  UNL1        0.0121
     24 N          67.7240   91.7143   14.8430 N.pl3   1  UNL1       -0.2187
     25 H          67.9743   90.8198   15.1694 H       1  UNL1        0.1734
     26 C          68.9404   94.1589   16.0857 C.3     1  UNL1        0.1996
     27 S          68.3322   92.9366   15.4643 S.O2    1  UNL1        0.0558
     28 O          67.1339   93.0800   16.3551 O.2     1  UNL1       -0.1544
     29 O          69.5305   92.7931   14.5736 O.2     1  UNL1       -0.1544
@<TRIPOS>BOND
     1    26    27    1
     2    27    28    2
     3    27    29    2
     4    27    24    1
     5    24    18    1
     6    18    19   ar
     7    19    20   ar
     8    20    21   ar
     9    21    22   ar
    10    22    17    1
    11    17     1    1
    12     1     2    2
    13     1     3   am
    14     3     5    1
    15     5     6   ar
    16     6     7   ar
    17     7    10    1
    18    10    11   ar
    19    11    12   ar
    20    12    13   ar
    21    13    14   ar
    22    14    15    1
    23    14    16   ar
    24     7     8   ar
    25     8     9   ar
    26    22    23   ar
    27    23    18   ar
    28     9     5   ar
    29    16    10   ar
    30    24    25    1
    31     3     4    1
@<TRIPOS>MOLECULE
*****
 29 31 0 0 0
SMALL
GASTEIGER

@<TRIPOS>ATOM
      1 C          63.5753   89.3126   14.0166 C.2     1  UNL1        0.2309
      2 O          62.3291   89.7803   13.3251 O.2     1  UNL1       -0.2744
      3 N          64.0949   87.9272   13.7700 N.am    1  UNL1       -0.2787
      4 H          64.9128   87.6202   14.2239 H       1  UNL1        0.1553
      5 C          63.3684   87.0096   12.8319 C.ar    1  UNL1        0.0807
      6 C          62.7391   87.4002   11.5275 C.ar    1  UNL1        0.0219
      7 C          62.1253   86.1723   10.9229 C.ar    1  UNL1        0.0084
      8 C          62.3753   85.0228   11.8536 C.ar    1  UNL1        0.0367
      9 S          63.1435   85.5403   13.0334 S.2     1  UNL1       -0.0717
     10 C          61.3906   86.1056    9.6168 C.ar    1  UNL1        0.0045
     11 C          60.0770   86.8121    9.4583 C.ar    1  UNL1        0.0208
     12 C          59.3423   86.7455    8.1524 C.ar    1  UNL1        0.0998
     13 N          59.9212   85.9722    7.0047 N.ar    1  UNL1       -0.2324
     14 C          61.2348   85.2656    7.1632 C.ar    1  UNL1        0.1384
     15 CL         61.8137   84.4924    6.0157 Cl      1  UNL1       -0.0613
     16 C          61.9695   85.3323    8.4693 C.ar    1  UNL1        0.0308
     17 C          64.3018   90.2302   14.9547 C.3     1  UNL1        0.1117
     18 C          65.7474   92.9169   12.4166 C.ar    1  UNL1        0.0641
     19 C          66.5851   93.7543   13.3369 C.ar    1  UNL1        0.0158
     20 C          66.6617   93.4170   14.7964 C.ar    1  UNL1        0.0010
     21 C          65.9007   92.2423   15.3357 C.ar    1  UNL1       -0.0037
     22 C          65.0630   91.4049   14.4154 C.ar    1  UNL1       -0.0118
     23 C          64.9863   91.7422   12.9559 C.ar    1  UNL1        0.0121
     24 N          65.6707   93.2541   10.9570 N.pl3   1  UNL1       -0.2187
     25 H          65.0761   92.7407   10.3637 H       1  UNL1        0.1734
     26 C          67.3294   95.4934    9.8458 C.3     1  UNL1        0.1996
     27 S          66.5000   94.3737   10.4014 S.O2    1  UNL1        0.0558
     28 O          67.6609   93.4367   10.2459 O.2     1  UNL1       -0.1544
     29 O          65.3391   95.3108   10.5569 O.2     1  UNL1       -0.1544
@<TRIPOS>BOND
     1    26    27    1
     2    27    28    2
     3    27    29    2
     4    27    24    1
     5    24    18    1
     6    18    19   ar
     7    19    20   ar
     8    20    21   ar
     9    21    22   ar
    10    22    17    1
    11    17     1    1
    12     1     2    2
    13     1     3   am
    14     3     5    1
    15     5     6   ar
    16     6     7   ar
    17     7    10    1
    18    10    11   ar
    19    11    12   ar
    20    12    13   ar
    21    13    14   ar
    22    14    15    1
    23    14    16   ar
    24     7     8   ar
    25     8     9   ar
    26    22    23   ar
    27    23    18   ar
    28     9     5   ar
    29    16    10   ar
    30    24    25    1
    31     3     4    1
@<TRIPOS>MOLECULE
*****
 29 31 0 0 0
SMALL
GASTEIGER

@<TRIPOS>ATOM
      1 C          62.3603   88.4120   11.2746 C.2     1  UNL1        0.2309
      2 O          62.6097   89.2895   10.0839 O.2     1  UNL1       -0.2744
      3 N          62.9140   88.7924   12.6158 N.am    1  UNL1       -0.2787
      4 H          62.7503   88.2164   13.3973 H       1  UNL1        0.1553
      5 C          63.7172   90.0502   12.7662 C.ar    1  UNL1        0.0807
      6 C          64.3762   90.8136   11.6559 C.ar    1  UNL1        0.0219
      7 C          65.0687   92.0007   12.2568 C.ar    1  UNL1        0.0084
      8 C          64.8375   91.9711   13.7387 C.ar    1  UNL1        0.0367
      9 S          64.0023   90.7657   14.0535 S.2     1  UNL1       -0.0717
     10 C          65.8543   93.0358   11.5076 C.ar    1  UNL1        0.0045
     11 C          65.7828   94.4760   11.9206 C.ar    1  UNL1        0.0208
     12 C          66.5684   95.5111   11.1715 C.ar    1  UNL1        0.0998
     13 N          67.4256   95.1060   10.0090 N.ar    1  UNL1       -0.2324
     14 C          67.4971   93.6658    9.5959 C.ar    1  UNL1        0.1384
     15 CL         68.3542   93.2606    8.4335 Cl      1  UNL1       -0.0613
     16 C          66.7114   92.6307   10.3452 C.ar    1  UNL1        0.0308
     17 C          61.5571   87.1541   11.1241 C.3     1  UNL1        0.1117
     18 C          63.2013   83.6157   11.8499 C.ar    1  UNL1        0.0641
     19 C          63.6402   83.2190   10.4715 C.ar    1  UNL1        0.0158
     20 C          63.3847   84.1340    9.3107 C.ar    1  UNL1        0.0010
     21 C          62.6904   85.4456    9.5282 C.ar    1  UNL1       -0.0037
     22 C          62.2515   85.8424   10.9066 C.ar    1  UNL1       -0.0118
     23 C          62.5070   84.9274   12.0674 C.ar    1  UNL1        0.0121
     24 N          63.4568   82.7008   13.0108 N.pl3   1  UNL1       -0.2187
     25 H          64.3550   82.6524   13.4110 H       1  UNL1        0.1734
     26 C          61.2309   81.0183   14.1129 C.3     1  UNL1        0.1996
     27 S          62.3439   81.8596   13.5618 S.O2    1  UNL1        0.0558
     28 O          62.1485   82.8467   14.6741 O.2     1  UNL1       -0.1544
     29 O          62.5393   80.8724   12.4494 O.2     1  UNL1       -0.1544
@<TRIPOS>BOND
     1    26    27    1
     2    27    28    2
     3    27    29    2
     4    27    24    1
     5    24    18    1
     6    18    19   ar
     7    19    20   ar
     8    20    21   ar
     9    21    22   ar
    10    22    17    1
    11    17     1    1
    12     1     2    2
    13     1     3   am
    14     3     5    1
    15     5     6   ar
    16     6     7   ar
    17     7    10    1
    18    10    11   ar
    19    11    12   ar
    20    12    13   ar
    21    13    14   ar
    22    14    15    1
    23    14    16   ar
    24     7     8   ar
    25     8     9   ar
    26    22    23   ar
    27    23    18   ar
    28     9     5   ar
    29    16    10   ar
    30    24    25    1
    31     3     4    1
@<TRIPOS>MOLECULE
*****
 29 31 0 0 0
SMALL
GASTEIGER

@<TRIPOS>ATOM
      1 C          62.0793   87.0064   10.6235 C.2     1  UNL1        0.2309
      2 O          62.4054   87.6100    9.2896 O.2     1  UNL1       -0.2744
      3 N          62.2916   87.8006   11.8782 N.am    1  UNL1       -0.2787
      4 H          62.0776   87.4044   12.7537 H       1  UNL1        0.1553
      5 C          62.8300   89.1984   11.7990 C.ar    1  UNL1        0.0807
      6 C          63.8833   89.7892   12.6886 C.ar    1  UNL1        0.0219
      7 C          64.1139   91.2068   12.2557 C.ar    1  UNL1        0.0084
      8 C          63.2031   91.4920   11.0984 C.ar    1  UNL1        0.0367
      9 S          62.4096   90.2507   10.8162 S.2     1  UNL1       -0.0717
     10 C          65.0848   92.1700   12.8718 C.ar    1  UNL1        0.0045
     11 C          65.5955   93.3333   12.0744 C.ar    1  UNL1        0.0208
     12 C          66.5663   94.2965   12.6904 C.ar    1  UNL1        0.0998
     13 N          67.0267   94.0964   14.1040 N.ar    1  UNL1       -0.2324
     14 C          66.5160   92.9330   14.9014 C.ar    1  UNL1        0.1384
     15 CL         66.9763   92.7329   16.3149 Cl      1  UNL1       -0.0613
     16 C          65.5451   91.9698   14.2853 C.ar    1  UNL1        0.0308
     17 C          61.5409   85.6086   10.7028 C.3     1  UNL1        0.1117
     18 C          63.3620   82.4239   12.2165 C.ar    1  UNL1        0.0641
     19 C          64.3639   82.1315   11.1392 C.ar    1  UNL1        0.0158
     20 C          64.4248   82.9981    9.9164 C.ar    1  UNL1        0.0010
     21 C          63.4839   84.1571    9.7709 C.ar    1  UNL1       -0.0037
     22 C          62.4820   84.4495   10.8482 C.ar    1  UNL1       -0.0118
     23 C          62.4211   83.5829   12.0710 C.ar    1  UNL1        0.0121
     24 N          63.3011   81.5573   13.4393 N.pl3   1  UNL1       -0.2187
     25 H          64.1144   81.3978   13.9707 H       1  UNL1        0.1734
     26 C          60.7009   80.3099   14.2659 C.3     1  UNL1        0.1996
     27 S          62.0010   80.9336   13.8526 S.O2    1  UNL1        0.0558
     28 O          61.7441   82.0839   14.7803 O.2     1  UNL1       -0.1544
     29 O          62.2579   79.7833   12.9249 O.2     1  UNL1       -0.1544
@<TRIPOS>BOND
     1    26    27    1
     2    27    28    2
     3    27    29    2
     4    27    24    1
     5    24    18    1
     6    18    19   ar
     7    19    20   ar
     8    20    21   ar
     9    21    22   ar
    10    22    17    1
    11    17     1    1
    12     1     2    2
    13     1     3   am
    14     3     5    1
    15     5     6   ar
    16     6     7   ar
    17     7    10    1
    18    10    11   ar
    19    11    12   ar
    20    12    13   ar
    21    13    14   ar
    22    14    15    1
    23    14    16   ar
    24     7     8   ar
    25     8     9   ar
    26    22    23   ar
    27    23    18   ar
    28     9     5   ar
    29    16    10   ar
    30    24    25    1
    31     3     4    1
