@<TRIPOS>MOLECULE
*****
 21 23 0 0 0
SMALL
GASTEIGER

@<TRIPOS>ATOM
      1 C          63.5093   85.6408   13.1393 C.ar    1  UNL1        0.0024
      2 C          63.0171   84.4162   12.4265 C.ar    1  UNL1        0.0065
      3 S          62.3063   84.8586   11.1819 S.2     1  UNL1       -0.0915
      4 C          62.3593   86.3566   11.1254 C.ar    1  UNL1        0.0289
      5 C          61.8265   87.3429   10.1288 C.ar    1  UNL1        0.0065
      6 C          62.0373   88.8126   10.3419 C.ar    1  UNL1        0.0005
      7 C          62.7808   89.2961   11.5516 C.ar    1  UNL1        0.0000
      8 C          63.3136   88.3098   12.5483 C.ar    1  UNL1        0.0002
      9 C          63.1028   86.8401   12.3352 C.ar    1  UNL1        0.0040
     10 C          65.6323   85.0308   14.5071 C.3     1  UNL1        0.0312
     11 C          64.2739   85.6624   14.4296 C.3     1  UNL1        0.1276
     12 N          63.6802   86.3154   15.6424 N.ar    1  UNL1       -0.2472
     13 C          63.0441   85.6084   16.8022 C.ar    1  UNL1        0.0970
     14 C          62.5891   86.6463   17.7849 C.ar    1  UNL1        0.0427
     15 C          62.9440   87.9948   17.2325 C.ar    1  UNL1        0.1217
     16 N          63.6183   87.7904   15.9082 N.ar    1  UNL1       -0.1674
     17 C          63.2029   82.9982   12.8789 C.3     1  UNL1        0.0500
     18 C          62.2604   82.4011   13.8814 C.3     1  UNL1        0.0774
     19 N          61.7168   81.0193   13.6695 N.3     1  UNL1       -0.2700
     20 C          62.5409   79.9907   12.9533 C.3     1  UNL1        0.0897
     21 C          60.3490   80.6659   14.1738 C.3     1  UNL1        0.0897
@<TRIPOS>BOND
     1    11    10    1
     2    11     1    1
     3     1     2   ar
     4     2    17    1
     5    17    18    1
     6    18    19    1
     7    19    20    1
     8    19    21    1
     9     2     3   ar
    10     3     4   ar
    11     4     5   ar
    12     5     6   ar
    13     6     7   ar
    14     7     8   ar
    15     8     9   ar
    16    11    12    1
    17    12    13   ar
    18    13    14   ar
    19    14    15   ar
    20    15    16   ar
    21     9     1   ar
    22    16    12   ar
    23     9     4   ar
@<TRIPOS>MOLECULE
*****
 21 23 0 0 0
SMALL
GASTEIGER

@<TRIPOS>ATOM
      1 C          66.0072   92.5061   11.9032 C.ar    1  UNL1        0.0024
      2 C          64.7022   91.7731   11.8059 C.ar    1  UNL1        0.0065
      3 S          64.2570   91.4325   13.1972 S.2     1  UNL1       -0.0915
      4 C          65.2869   91.9550   14.1544 C.ar    1  UNL1        0.0289
      5 C          65.3795   91.9123   15.6509 C.ar    1  UNL1        0.0065
      6 C          66.5538   92.5332   16.3477 C.ar    1  UNL1        0.0005
      7 C          67.6355   93.1967   15.5479 C.ar    1  UNL1        0.0000
      8 C          67.5430   93.2394   14.0514 C.ar    1  UNL1        0.0002
      9 C          66.3687   92.6185   13.3547 C.ar    1  UNL1        0.0040
     10 C          67.6687   92.1037    9.9467 C.3     1  UNL1        0.0312
     11 C          66.8100   93.0340   10.7513 C.3     1  UNL1        0.1276
     12 N          66.7542   94.4921   10.4040 N.ar    1  UNL1       -0.2472
     13 C          67.5173   95.1660    9.3024 C.ar    1  UNL1        0.0970
     14 C          67.1602   96.6227    9.3149 C.ar    1  UNL1        0.0427
     15 C          66.1764   96.8494   10.4242 C.ar    1  UNL1        0.1217
     16 N          65.9255   95.5325   11.0974 N.ar    1  UNL1       -0.1674
     17 C          63.9707   91.4393   10.5396 C.3     1  UNL1        0.0500
     18 C          62.5112   91.0961   10.5847 C.3     1  UNL1        0.0774
     19 N          62.0737   89.6650   10.4814 N.3     1  UNL1       -0.2700
     20 C          61.0911   89.2556    9.4245 C.3     1  UNL1        0.0897
     21 C          62.6188   88.6435   11.4349 C.3     1  UNL1        0.0897
@<TRIPOS>BOND
     1    11    10    1
     2    11     1    1
     3     1     2   ar
     4     2    17    1
     5    17    18    1
     6    18    19    1
     7    19    20    1
     8    19    21    1
     9     2     3   ar
    10     3     4   ar
    11     4     5   ar
    12     5     6   ar
    13     6     7   ar
    14     7     8   ar
    15     8     9   ar
    16    11    12    1
    17    12    13   ar
    18    13    14   ar
    19    14    15   ar
    20    15    16   ar
    21     9     1   ar
    22    16    12   ar
    23     9     4   ar
@<TRIPOS>MOLECULE
*****
 21 23 0 0 0
SMALL
GASTEIGER

@<TRIPOS>ATOM
      1 C          64.8794   91.7181   12.9401 C.ar    1  UNL1        0.0024
      2 C          65.3103   92.7766   11.9687 C.ar    1  UNL1        0.0065
      3 S          64.6300   92.5083   10.6590 S.2     1  UNL1       -0.0915
      4 C          63.7787   91.2840   10.8211 C.ar    1  UNL1        0.0289
      5 C          62.8831   90.5508    9.8670 C.ar    1  UNL1        0.0065
      6 C          62.1416   89.3291   10.3229 C.ar    1  UNL1        0.0005
      7 C          62.2957   88.8407   11.7327 C.ar    1  UNL1        0.0000
      8 C          63.1914   89.5740   12.6868 C.ar    1  UNL1        0.0002
      9 C          63.9328   90.7956   12.2309 C.ar    1  UNL1        0.0040
     10 C          64.3909   91.0175   15.3939 C.3     1  UNL1        0.0312
     11 C          65.3181   91.6023   14.3699 C.3     1  UNL1        0.1276
     12 N          66.6837   92.0714   14.7757 N.ar    1  UNL1       -0.2472
     13 C          66.9990   92.9714   15.9335 C.ar    1  UNL1        0.0970
     14 C          68.4841   93.1790   15.9683 C.ar    1  UNL1        0.0427
     15 C          69.0868   92.4072   14.8322 C.ar    1  UNL1        0.1217
     16 N          67.9741   91.7226   14.0950 N.ar    1  UNL1       -0.1674
     17 C          66.2554   93.9053   12.2563 C.3     1  UNL1        0.0500
     18 C          66.1390   95.1932   11.4963 C.3     1  UNL1        0.0774
     19 N          67.0284   95.4507   10.3162 N.3     1  UNL1       -0.2700
     20 C          67.2162   96.8501    9.8097 C.3     1  UNL1        0.0897
     21 C          67.7300   94.3088    9.6425 C.3     1  UNL1        0.0897
@<TRIPOS>BOND
     1    11    10    1
     2    11     1    1
     3     1     2   ar
     4     2    17    1
     5    17    18    1
     6    18    19    1
     7    19    20    1
     8    19    21    1
     9     2     3   ar
    10     3     4   ar
    11     4     5   ar
    12     5     6   ar
    13     6     7   ar
    14     7     8   ar
    15     8     9   ar
    16    11    12    1
    17    12    13   ar
    18    13    14   ar
    19    14    15   ar
    20    15    16   ar
    21     9     1   ar
    22    16    12   ar
    23     9     4   ar
@<TRIPOS>MOLECULE
*****
 21 23 0 0 0
SMALL
GASTEIGER

@<TRIPOS>ATOM
      1 C          65.3854   92.2222   12.7686 C.ar    1  UNL1        0.0024
      2 C          65.3780   91.5893   14.1285 C.ar    1  UNL1        0.0065
      3 S          64.3433   90.5032   14.1285 S.2     1  UNL1       -0.0915
      4 C          63.7113   90.4650   12.7687 C.ar    1  UNL1        0.0289
      5 C          62.6326   89.6000   12.1872 C.ar    1  UNL1        0.0065
      6 C          62.1980   89.7974   10.7653 C.ar    1  UNL1        0.0005
      7 C          62.8420   90.8599    9.9248 C.ar    1  UNL1        0.0000
      8 C          63.9207   91.7248   10.5062 C.ar    1  UNL1        0.0002
      9 C          64.3554   91.5274   11.9282 C.ar    1  UNL1        0.0040
     10 C          66.3645   94.5973   13.1571 C.3     1  UNL1        0.0312
     11 C          66.2679   93.3518   12.3266 C.3     1  UNL1        0.1276
     12 N          67.0539   93.2359   11.0544 N.ar    1  UNL1       -0.2472
     13 C          67.7713   92.0112   10.5696 C.ar    1  UNL1        0.0970
     14 C          68.4212   92.3429    9.2590 C.ar    1  UNL1        0.0427
     15 C          68.1055   93.7727    8.9338 C.ar    1  UNL1        0.1217
     16 N          67.2603   94.3247   10.0434 N.ar    1  UNL1       -0.1674
     17 C          66.2517   91.9747   15.2852 C.3     1  UNL1        0.0500
     18 C          67.6920   91.5565   15.3092 C.3     1  UNL1        0.0774
     19 N          68.7653   92.5426   14.9549 N.3     1  UNL1       -0.2700
     20 C          69.6664   92.2821   13.7842 C.3     1  UNL1        0.0897
     21 C          68.9376   93.7892   15.7711 C.3     1  UNL1        0.0897
@<TRIPOS>BOND
     1    11    10    1
     2    11     1    1
     3     1     2   ar
     4     2    17    1
     5    17    18    1
     6    18    19    1
     7    19    20    1
     8    19    21    1
     9     2     3   ar
    10     3     4   ar
    11     4     5   ar
    12     5     6   ar
    13     6     7   ar
    14     7     8   ar
    15     8     9   ar
    16    11    12    1
    17    12    13   ar
    18    13    14   ar
    19    14    15   ar
    20    15    16   ar
    21     9     1   ar
    22    16    12   ar
    23     9     4   ar
@<TRIPOS>MOLECULE
*****
 21 23 0 0 0
SMALL
GASTEIGER

@<TRIPOS>ATOM
      1 C          63.0746   84.6140   12.0592 C.ar    1  UNL1        0.0024
      2 C          63.4906   85.3872   13.2754 C.ar    1  UNL1        0.0065
      3 S          63.6517   84.4175   14.4084 S.2     1  UNL1       -0.0915
      4 C          63.3352   83.0450   13.8925 C.ar    1  UNL1        0.0289
      5 C          63.3257   81.7004   14.5572 C.ar    1  UNL1        0.0065
      6 C          62.9596   80.4773   13.7700 C.ar    1  UNL1        0.0005
      7 C          62.6029   80.5987   12.3180 C.ar    1  UNL1        0.0000
      8 C          62.6124   81.9433   11.6533 C.ar    1  UNL1        0.0002
      9 C          62.9785   83.1665   12.4406 C.ar    1  UNL1        0.0040
     10 C          63.3926   84.5419    9.4816 C.3     1  UNL1        0.0312
     11 C          62.8024   85.1876   10.7002 C.3     1  UNL1        0.1276
     12 N          61.9401   86.4068   10.5596 N.ar    1  UNL1       -0.2472
     13 C          62.0517   87.4466    9.4844 C.ar    1  UNL1        0.0970
     14 C          60.9953   88.4827    9.7299 C.ar    1  UNL1        0.0427
     15 C          60.2306   88.0834   10.9570 C.ar    1  UNL1        0.1217
     16 N          60.8145   86.8003   11.4698 N.ar    1  UNL1       -0.1674
     17 C          63.7075   86.8698   13.3461 C.3     1  UNL1        0.0500
     18 C          64.2208   87.4932   14.6101 C.3     1  UNL1        0.0774
     19 N          63.7042   88.8309   15.0502 N.3     1  UNL1       -0.2700
     20 C          63.2691   89.0364   16.4709 C.3     1  UNL1        0.0897
     21 C          63.6227   89.9630   14.0696 C.3     1  UNL1        0.0897
@<TRIPOS>BOND
     1    11    10    1
     2    11     1    1
     3     1     2   ar
     4     2    17    1
     5    17    18    1
     6    18    19    1
     7    19    20    1
     8    19    21    1
     9     2     3   ar
    10     3     4   ar
    11     4     5   ar
    12     5     6   ar
    13     6     7   ar
    14     7     8   ar
    15     8     9   ar
    16    11    12    1
    17    12    13   ar
    18    13    14   ar
    19    14    15   ar
    20    15    16   ar
    21     9     1   ar
    22    16    12   ar
    23     9     4   ar
@<TRIPOS>MOLECULE
*****
 21 23 0 0 0
SMALL
GASTEIGER

@<TRIPOS>ATOM
      1 C          62.3651   86.5747   11.1049 C.ar    1  UNL1        0.0024
      2 C          62.6715   87.8577   11.8189 C.ar    1  UNL1        0.0065
      3 S          61.9113   88.9586   11.1406 S.2     1  UNL1       -0.0915
      4 C          61.1350   88.3559   10.0074 C.ar    1  UNL1        0.0289
      5 C          60.2090   88.9584    8.9928 C.ar    1  UNL1        0.0065
      6 C          59.5635   88.0875    7.9561 C.ar    1  UNL1        0.0005
      7 C          59.8440   86.6141    7.9340 C.ar    1  UNL1        0.0000
      8 C          60.7700   86.0116    8.9486 C.ar    1  UNL1        0.0002
      9 C          61.4155   86.8825    9.9853 C.ar    1  UNL1        0.0040
     10 C          63.2631   84.2537   10.3585 C.3     1  UNL1        0.0312
     11 C          62.9123   85.2213   11.4498 C.3     1  UNL1        0.1276
     12 N          63.1086   84.8354   12.8859 N.ar    1  UNL1       -0.2472
     13 C          64.3965   84.3864   13.5101 C.ar    1  UNL1        0.0970
     14 C          64.1353   84.1042   14.9600 C.ar    1  UNL1        0.0427
     15 C          62.6860   84.3788   15.2319 C.ar    1  UNL1        0.1217
     16 N          62.0514   84.8307   13.9500 N.ar    1  UNL1       -0.1674
     17 C          63.5789   88.0127   13.0033 C.3     1  UNL1        0.0500
     18 C          63.8914   89.3801   13.5348 C.3     1  UNL1        0.0774
     19 N          63.8319   89.6428   15.0104 N.3     1  UNL1       -0.2700
     20 C          63.4474   88.5414   15.9534 C.3     1  UNL1        0.0897
     21 C          64.1569   91.0068   15.5431 C.3     1  UNL1        0.0897
@<TRIPOS>BOND
     1    11    10    1
     2    11     1    1
     3     1     2   ar
     4     2    17    1
     5    17    18    1
     6    18    19    1
     7    19    20    1
     8    19    21    1
     9     2     3   ar
    10     3     4   ar
    11     4     5   ar
    12     5     6   ar
    13     6     7   ar
    14     7     8   ar
    15     8     9   ar
    16    11    12    1
    17    12    13   ar
    18    13    14   ar
    19    14    15   ar
    20    15    16   ar
    21     9     1   ar
    22    16    12   ar
    23     9     4   ar
@<TRIPOS>MOLECULE
*****
 21 23 0 0 0
SMALL
GASTEIGER

@<TRIPOS>ATOM
      1 C          61.4410   88.1890   10.8297 C.ar    1  UNL1        0.0024
      2 C          62.2003   86.9550   11.2180 C.ar    1  UNL1        0.0065
      3 S          61.9477   85.9078   10.1742 S.2     1  UNL1       -0.0915
      4 C          61.0322   86.4945    9.1409 C.ar    1  UNL1        0.0289
      5 C          60.4433   85.9271    7.8834 C.ar    1  UNL1        0.0065
      6 C          59.5413   86.7696    7.0311 C.ar    1  UNL1        0.0005
      7 C          59.2281   88.1795    7.4363 C.ar    1  UNL1        0.0000
      8 C          59.8170   88.7469    8.6937 C.ar    1  UNL1        0.0002
      9 C          60.7190   87.9044    9.5460 C.ar    1  UNL1        0.0040
     10 C          60.1646   89.8903   12.3220 C.3     1  UNL1        0.0312
     11 C          61.4091   89.4808   11.5914 C.3     1  UNL1        0.1276
     12 N          62.6216   90.3632   11.6227 N.ar    1  UNL1       -0.2472
     13 C          63.2186   91.0832   10.4500 C.ar    1  UNL1        0.0970
     14 C          64.4160   91.8456   10.9347 C.ar    1  UNL1        0.0427
     15 C          64.5592   91.5968   12.4069 C.ar    1  UNL1        0.1217
     16 N          63.4501   90.6806   12.8321 N.ar    1  UNL1       -0.1674
     17 C          63.0611   86.7962   12.4361 C.3     1  UNL1        0.0500
     18 C          63.3563   85.4269   12.9725 C.3     1  UNL1        0.0774
     19 N          63.2836   85.1677   14.4481 N.3     1  UNL1       -0.2700
     20 C          62.3370   84.1340   14.9824 C.3     1  UNL1        0.0897
     21 C          64.1576   85.9423   15.3896 C.3     1  UNL1        0.0897
@<TRIPOS>BOND
     1    11    10    1
     2    11     1    1
     3     1     2   ar
     4     2    17    1
     5    17    18    1
     6    18    19    1
     7    19    20    1
     8    19    21    1
     9     2     3   ar
    10     3     4   ar
    11     4     5   ar
    12     5     6   ar
    13     6     7   ar
    14     7     8   ar
    15     8     9   ar
    16    11    12    1
    17    12    13   ar
    18    13    14   ar
    19    14    15   ar
    20    15    16   ar
    21     9     1   ar
    22    16    12   ar
    23     9     4   ar
@<TRIPOS>MOLECULE
*****
 21 23 0 0 0
SMALL
GASTEIGER

@<TRIPOS>ATOM
      1 C          63.9672   90.2371   14.3021 C.ar    1  UNL1        0.0024
      2 C          63.3581   90.0993   12.9382 C.ar    1  UNL1        0.0065
      3 S          63.9793   91.1332   12.0466 S.2     1  UNL1       -0.0915
      4 C          64.9723   91.9100   12.8593 C.ar    1  UNL1        0.0289
      5 C          65.8823   93.0501   12.5101 C.ar    1  UNL1        0.0065
      6 C          66.7849   93.6364   13.5549 C.ar    1  UNL1        0.0005
      7 C          66.7774   93.0825   14.9489 C.ar    1  UNL1        0.0000
      8 C          65.8674   91.9424   15.2981 C.ar    1  UNL1        0.0002
      9 C          64.9648   91.3562   14.2533 C.ar    1  UNL1        0.0040
     10 C          63.1162   90.0549   16.7501 C.3     1  UNL1        0.0312
     11 C          63.6367   89.4024   15.5037 C.3     1  UNL1        0.1276
     12 N          63.8266   87.9152   15.4592 N.ar    1  UNL1       -0.2472
     13 C          64.6468   87.1607   14.4552 C.ar    1  UNL1        0.0970
     14 C          64.5568   85.7005   14.7864 C.ar    1  UNL1        0.0427
     15 C          63.6809   85.5524   15.9949 C.ar    1  UNL1        0.1217
     16 N          63.2295   86.9212   16.4108 N.ar    1  UNL1       -0.1674
     17 C          62.3116   89.1025   12.5366 C.3     1  UNL1        0.0500
     18 C          62.1469   88.7282   11.0935 C.3     1  UNL1        0.0774
     19 N          60.8140   88.8888   10.4243 N.3     1  UNL1       -0.2700
     20 C          60.1921   87.7295    9.7036 C.3     1  UNL1        0.0897
     21 C          60.1031   90.2086   10.4759 C.3     1  UNL1        0.0897
@<TRIPOS>BOND
     1    11    10    1
     2    11     1    1
     3     1     2   ar
     4     2    17    1
     5    17    18    1
     6    18    19    1
     7    19    20    1
     8    19    21    1
     9     2     3   ar
    10     3     4   ar
    11     4     5   ar
    12     5     6   ar
    13     6     7   ar
    14     7     8   ar
    15     8     9   ar
    16    11    12    1
    17    12    13   ar
    18    13    14   ar
    19    14    15   ar
    20    15    16   ar
    21     9     1   ar
    22    16    12   ar
    23     9     4   ar
@<TRIPOS>MOLECULE
*****
 21 23 0 0 0
SMALL
GASTEIGER

@<TRIPOS>ATOM
      1 C          62.2976   88.5359   11.0808 C.ar    1  UNL1        0.0024
      2 C          62.5491   87.1705   11.6487 C.ar    1  UNL1        0.0065
      3 S          61.7226   86.1871   10.8742 S.2     1  UNL1       -0.0915
      4 C          60.9604   86.9447    9.8277 C.ar    1  UNL1        0.0289
      5 C          59.9886   86.5002    8.7751 C.ar    1  UNL1        0.0065
      6 C          59.3723   87.5075    7.8502 C.ar    1  UNL1        0.0005
      7 C          59.7277   88.9592    7.9779 C.ar    1  UNL1        0.0000
      8 C          60.6994   89.4036    9.0305 C.ar    1  UNL1        0.0002
      9 C          61.3158   88.3964    9.9555 C.ar    1  UNL1        0.0040
     10 C          63.1523   90.9396   10.5889 C.3     1  UNL1        0.0312
     11 C          62.9190   89.8162   11.5551 C.3     1  UNL1        0.1276
     12 N          63.3069   89.9731   12.9955 N.ar    1  UNL1       -0.2472
     13 C          64.6662   90.3487   13.5067 C.ar    1  UNL1        0.0970
     14 C          64.6030   90.3896   15.0048 C.ar    1  UNL1        0.0427
     15 C          63.2048   90.0394   15.4195 C.ar    1  UNL1        0.1217
     16 N          62.4036   89.7820   14.1777 N.ar    1  UNL1       -0.1674
     17 C          63.4660   86.8456   12.7904 C.3     1  UNL1        0.0500
     18 C          63.5255   85.4473   13.3301 C.3     1  UNL1        0.0774
     19 N          63.3111   85.1985   14.7937 N.3     1  UNL1       -0.2700
     20 C          62.5634   83.9791   15.2455 C.3     1  UNL1        0.0897
     21 C          63.8444   86.1690   15.8054 C.3     1  UNL1        0.0897
@<TRIPOS>BOND
     1    11    10    1
     2    11     1    1
     3     1     2   ar
     4     2    17    1
     5    17    18    1
     6    18    19    1
     7    19    20    1
     8    19    21    1
     9     2     3   ar
    10     3     4   ar
    11     4     5   ar
    12     5     6   ar
    13     6     7   ar
    14     7     8   ar
    15     8     9   ar
    16    11    12    1
    17    12    13   ar
    18    13    14   ar
    19    14    15   ar
    20    15    16   ar
    21     9     1   ar
    22    16    12   ar
    23     9     4   ar
