@<TRIPOS>MOLECULE
*****
 21 22 0 0 0
SMALL
GASTEIGER

@<TRIPOS>ATOM
      1 C          63.8466   90.9248   13.0674 C.ar    1  UNL1        0.1427
      2 C          64.5475   91.6954   11.9881 C.ar    1  UNL1        0.0371
      3 C          65.8513   92.3774   12.2795 C.ar    1  UNL1        0.0045
      4 C          66.4543   92.2888   13.6501 C.ar    1  UNL1        0.0004
      5 C          65.7534   91.5181   14.7293 C.ar    1  UNL1        0.0076
      6 C          64.4495   90.8361   14.4379 C.ar    1  UNL1        0.0870
      7 C          66.5523   93.1481   11.2002 C.ar    1  UNL1        0.0193
      8 C          67.4707   92.4402   10.2488 C.ar    1  UNL1        0.0031
      9 C          68.1716   93.2108    9.1695 C.ar    1  UNL1        0.0207
     10 C          67.9541   94.6894    9.0416 C.ar    1  UNL1        0.0989
     11 N          67.0356   95.3974    9.9931 N.ar    1  UNL1       -0.2423
     12 C          66.3347   94.6267   11.0724 C.ar    1  UNL1        0.0988
     13 C          63.7486   90.0654   15.5173 C.2     1  UNL1        0.2457
     14 N          63.5170   88.5921   15.3571 N.am    1  UNL1       -0.3252
     15 O          63.2793   90.7680   16.7566 O.2     1  UNL1       -0.2703
     16 H          63.8251   88.1309   14.5437 H       1  UNL1        0.1453
     17 H          63.0570   88.0862   16.0655 H       1  UNL1        0.1453
     18 O          62.5428   90.2428   12.7760 O.3     1  UNL1       -0.4790
     19 C          62.6868   87.9467   11.5689 C.3     1  UNL1        0.0472
     20 C          62.3898   89.4166   11.5335 C.3     1  UNL1        0.1661
     21 C          61.9397   90.0602   10.2554 C.3     1  UNL1        0.0472
@<TRIPOS>BOND
     1    19    20    1
     2    20    21    1
     3    20    18    1
     4    18     1    1
     5     1     2   ar
     6     2     3   ar
     7     3     7    1
     8     7     8   ar
     9     8     9   ar
    10     9    10   ar
    11    10    11   ar
    12    11    12   ar
    13     3     4   ar
    14     4     5   ar
    15     5     6   ar
    16     6    13    1
    17    13    14   am
    18    13    15    2
    19     6     1   ar
    20    12     7   ar
    21    14    16    1
    22    14    17    1
@<TRIPOS>MOLECULE
*****
 21 22 0 0 0
SMALL
GASTEIGER

@<TRIPOS>ATOM
      1 C          66.1095   92.5039   12.3782 C.ar    1  UNL1        0.1427
      2 C          64.8715   91.9590   11.7299 C.ar    1  UNL1        0.0371
      3 C          64.0417   90.9324   12.4422 C.ar    1  UNL1        0.0045
      4 C          64.4498   90.4507   13.8028 C.ar    1  UNL1        0.0004
      5 C          65.6878   90.9956   14.4511 C.ar    1  UNL1        0.0076
      6 C          66.5176   92.0222   13.7388 C.ar    1  UNL1        0.0870
      7 C          62.8036   90.3874   11.7938 C.ar    1  UNL1        0.0193
      8 C          62.6829   90.3761   10.2987 C.ar    1  UNL1        0.0031
      9 C          61.4449   89.8312    9.6503 C.ar    1  UNL1        0.0207
     10 C          60.3276   89.2976   10.4970 C.ar    1  UNL1        0.0989
     11 N          60.4482   89.3089   11.9921 N.ar    1  UNL1       -0.2423
     12 C          61.6863   89.8539   12.6405 C.ar    1  UNL1        0.0988
     13 C          67.7557   92.5672   14.3872 C.2     1  UNL1        0.2457
     14 N          69.1073   92.1990   13.8509 N.am    1  UNL1       -0.3252
     15 O          67.6421   93.4802   15.5718 O.2     1  UNL1       -0.2703
     16 H          69.1818   91.5997   13.0734 H       1  UNL1        0.1453
     17 H          69.9199   92.5566   14.2764 H       1  UNL1        0.1453
     18 O          66.9394   93.5305   11.6659 O.3     1  UNL1       -0.4790
     19 C          68.1146   92.0308    9.8996 C.3     1  UNL1        0.0472
     20 C          67.3794   93.2898   10.2522 C.3     1  UNL1        0.1661
     21 C          67.0841   94.3082    9.1911 C.3     1  UNL1        0.0472
@<TRIPOS>BOND
     1    19    20    1
     2    20    21    1
     3    20    18    1
     4    18     1    1
     5     1     2   ar
     6     2     3   ar
     7     3     7    1
     8     7     8   ar
     9     8     9   ar
    10     9    10   ar
    11    10    11   ar
    12    11    12   ar
    13     3     4   ar
    14     4     5   ar
    15     5     6   ar
    16     6    13    1
    17    13    14   am
    18    13    15    2
    19     6     1   ar
    20    12     7   ar
    21    14    16    1
    22    14    17    1
@<TRIPOS>MOLECULE
*****
 21 22 0 0 0
SMALL
GASTEIGER

@<TRIPOS>ATOM
      1 C          61.6267   86.8260   10.4757 C.ar    1  UNL1        0.1427
      2 C          62.4675   87.5862   11.4581 C.ar    1  UNL1        0.0371
      3 C          62.5886   89.0771   11.3459 C.ar    1  UNL1        0.0045
      4 C          61.8689   89.8078   10.2514 C.ar    1  UNL1        0.0004
      5 C          61.0281   89.0476    9.2690 C.ar    1  UNL1        0.0076
      6 C          60.9070   87.5567    9.3812 C.ar    1  UNL1        0.0870
      7 C          63.4294   89.8373   12.3284 C.ar    1  UNL1        0.0193
      8 C          63.8785   89.1784   13.5989 C.ar    1  UNL1        0.0031
      9 C          64.7193   89.9386   14.5813 C.ar    1  UNL1        0.0207
     10 C          65.1111   91.3576   14.2933 C.ar    1  UNL1        0.0989
     11 N          64.6620   92.0165   13.0228 N.ar    1  UNL1       -0.2423
     12 C          63.8212   91.2563   12.0403 C.ar    1  UNL1        0.0988
     13 C          60.0661   86.7965    8.3987 C.2     1  UNL1        0.2457
     14 N          60.6854   85.7219    7.5552 N.am    1  UNL1       -0.3252
     15 O          58.6061   87.1110    8.2599 O.2     1  UNL1       -0.2703
     16 H          61.6437   85.5155    7.6463 H       1  UNL1        0.1453
     17 H          60.1336   85.2229    6.9104 H       1  UNL1        0.1453
     18 O          61.5056   85.3351   10.5879 O.3     1  UNL1       -0.4790
     19 C          63.0914   83.9918   12.1469 C.3     1  UNL1        0.0472
     20 C          62.7334   84.4953   10.7800 C.3     1  UNL1        0.1661
     21 C          63.6034   84.1588    9.6052 C.3     1  UNL1        0.0472
@<TRIPOS>BOND
     1    19    20    1
     2    20    21    1
     3    20    18    1
     4    18     1    1
     5     1     2   ar
     6     2     3   ar
     7     3     7    1
     8     7     8   ar
     9     8     9   ar
    10     9    10   ar
    11    10    11   ar
    12    11    12   ar
    13     3     4   ar
    14     4     5   ar
    15     5     6   ar
    16     6    13    1
    17    13    14   am
    18    13    15    2
    19     6     1   ar
    20    12     7   ar
    21    14    16    1
    22    14    17    1
@<TRIPOS>MOLECULE
*****
 21 22 0 0 0
SMALL
GASTEIGER

@<TRIPOS>ATOM
      1 C          62.8144   84.9101   12.5506 C.ar    1  UNL1        0.1427
      2 C          61.9849   85.3733   11.3898 C.ar    1  UNL1        0.0371
      3 C          61.9370   86.8303   11.0363 C.ar    1  UNL1        0.0045
      4 C          62.7185   87.8240   11.8435 C.ar    1  UNL1        0.0004
      5 C          63.5480   87.3608   13.0043 C.ar    1  UNL1        0.0076
      6 C          63.5959   85.9038   13.3578 C.ar    1  UNL1        0.0870
      7 C          61.1074   87.2935    9.8755 C.ar    1  UNL1        0.0193
      8 C          60.4991   86.2904    8.9408 C.ar    1  UNL1        0.0031
      9 C          59.6696   86.7536    7.7800 C.ar    1  UNL1        0.0207
     10 C          59.4484   88.2199    7.5540 C.ar    1  UNL1        0.0989
     11 N          60.0567   89.2230    8.4887 N.ar    1  UNL1       -0.2423
     12 C          60.8862   88.7598    9.6495 C.ar    1  UNL1        0.0988
     13 C          64.4255   85.4406   14.5186 C.2     1  UNL1        0.2457
     14 N          65.5670   84.4937   14.2941 N.am    1  UNL1       -0.3252
     15 O          64.1135   85.9243   15.9037 O.2     1  UNL1       -0.2703
     16 H          65.7717   84.1762   13.3850 H       1  UNL1        0.1453
     17 H          66.1114   84.1897   15.0559 H       1  UNL1        0.1453
     18 O          62.8623   83.4531   12.9041 O.3     1  UNL1       -0.4790
     19 C          64.4578   82.8866   10.9334 C.3     1  UNL1        0.0472
     20 C          63.4144   82.4613   11.9236 C.3     1  UNL1        0.1661
     21 C          62.9231   81.0440   11.9333 C.3     1  UNL1        0.0472
@<TRIPOS>BOND
     1    19    20    1
     2    20    21    1
     3    20    18    1
     4    18     1    1
     5     1     2   ar
     6     2     3   ar
     7     3     7    1
     8     7     8   ar
     9     8     9   ar
    10     9    10   ar
    11    10    11   ar
    12    11    12   ar
    13     3     4   ar
    14     4     5   ar
    15     5     6   ar
    16     6    13    1
    17    13    14   am
    18    13    15    2
    19     6     1   ar
    20    12     7   ar
    21    14    16    1
    22    14    17    1
@<TRIPOS>MOLECULE
*****
 21 22 0 0 0
SMALL
GASTEIGER

@<TRIPOS>ATOM
      1 C          63.8361   91.0051   12.2214 C.ar    1  UNL1        0.1427
      2 C          63.4827   89.8570   13.1198 C.ar    1  UNL1        0.0371
      3 C          64.2884   89.5981   14.3582 C.ar    1  UNL1        0.0045
      4 C          65.4475   90.4873   14.6984 C.ar    1  UNL1        0.0004
      5 C          65.8009   91.6354   13.8000 C.ar    1  UNL1        0.0076
      6 C          64.9952   91.8943   12.5616 C.ar    1  UNL1        0.0870
      7 C          63.9350   88.4500   15.2566 C.ar    1  UNL1        0.0193
      8 C          64.3289   87.0530   14.8783 C.ar    1  UNL1        0.0031
      9 C          63.9755   85.9048   15.7766 C.ar    1  UNL1        0.0207
     10 C          63.2282   86.1538   17.0532 C.ar    1  UNL1        0.0989
     11 N          62.8342   87.5508   17.4314 N.ar    1  UNL1       -0.2423
     12 C          63.1877   88.6990   16.5331 C.ar    1  UNL1        0.0988
     13 C          65.3486   93.0424   11.6632 C.2     1  UNL1        0.2457
     14 N          65.0406   92.9698   10.1970 N.am    1  UNL1       -0.3252
     15 O          66.0100   94.2630   12.2311 O.2     1  UNL1       -0.2703
     16 H          64.6065   92.1686    9.8242 H       1  UNL1        0.1453
     17 H          65.2726   93.7233    9.6074 H       1  UNL1        0.1453
     18 O          63.0303   91.2639   10.9830 O.3     1  UNL1       -0.4790
     19 C          62.2738   89.0343    9.8846 C.3     1  UNL1        0.0472
     20 C          61.9372   90.3159   10.5876 C.3     1  UNL1        0.1661
     21 C          60.5075   90.6495   10.8953 C.3     1  UNL1        0.0472
@<TRIPOS>BOND
     1    19    20    1
     2    20    21    1
     3    20    18    1
     4    18     1    1
     5     1     2   ar
     6     2     3   ar
     7     3     7    1
     8     7     8   ar
     9     8     9   ar
    10     9    10   ar
    11    10    11   ar
    12    11    12   ar
    13     3     4   ar
    14     4     5   ar
    15     5     6   ar
    16     6    13    1
    17    13    14   am
    18    13    15    2
    19     6     1   ar
    20    12     7   ar
    21    14    16    1
    22    14    17    1
@<TRIPOS>MOLECULE
*****
 21 22 0 0 0
SMALL
GASTEIGER

@<TRIPOS>ATOM
      1 C          63.1036   88.1926   12.3492 C.ar    1  UNL1        0.1427
      2 C          63.0948   86.6930   12.3781 C.ar    1  UNL1        0.0371
      3 C          63.7253   85.9612   13.5257 C.ar    1  UNL1        0.0045
      4 C          64.3647   86.7291   14.6444 C.ar    1  UNL1        0.0004
      5 C          64.3735   88.2288   14.6155 C.ar    1  UNL1        0.0076
      6 C          63.7430   88.9605   13.4679 C.ar    1  UNL1        0.0870
      7 C          63.7165   84.4615   13.5546 C.ar    1  UNL1        0.0193
      8 C          64.0952   83.6855   12.3280 C.ar    1  UNL1        0.0031
      9 C          64.0863   82.1858   12.3568 C.ar    1  UNL1        0.0207
     10 C          63.6988   81.4621   13.6123 C.ar    1  UNL1        0.0989
     11 N          63.3202   82.2380   14.8389 N.ar    1  UNL1       -0.2423
     12 C          63.3290   83.7378   14.8100 C.ar    1  UNL1        0.0988
     13 C          63.7518   90.4603   13.4390 C.2     1  UNL1        0.2457
     14 N          63.9807   91.1842   12.1453 N.am    1  UNL1       -0.3252
     15 O          63.5319   91.2361   14.7038 O.2     1  UNL1       -0.2703
     16 H          64.1250   90.6750   11.3152 H       1  UNL1        0.1453
     17 H          63.9865   92.1685   12.1263 H       1  UNL1        0.1453
     18 O          62.4731   88.9244   11.2016 O.3     1  UNL1       -0.4790
     19 C          60.1903   90.1075   11.5738 C.3     1  UNL1        0.0472
     20 C          60.9806   88.9436   11.0536 C.3     1  UNL1        0.1661
     21 C          60.2784   87.7989   10.3852 C.3     1  UNL1        0.0472
@<TRIPOS>BOND
     1    19    20    1
     2    20    21    1
     3    20    18    1
     4    18     1    1
     5     1     2   ar
     6     2     3   ar
     7     3     7    1
     8     7     8   ar
     9     8     9   ar
    10     9    10   ar
    11    10    11   ar
    12    11    12   ar
    13     3     4   ar
    14     4     5   ar
    15     5     6   ar
    16     6    13    1
    17    13    14   am
    18    13    15    2
    19     6     1   ar
    20    12     7   ar
    21    14    16    1
    22    14    17    1
@<TRIPOS>MOLECULE
*****
 21 22 0 0 0
SMALL
GASTEIGER

@<TRIPOS>ATOM
      1 C          61.1437   87.3794    9.5864 C.ar    1  UNL1        0.1427
      2 C          62.0927   87.7603   10.6838 C.ar    1  UNL1        0.0371
      3 C          62.2323   89.1977   11.0894 C.ar    1  UNL1        0.0045
      4 C          61.4228   90.2542   10.3976 C.ar    1  UNL1        0.0004
      5 C          60.4738   89.8733    9.3003 C.ar    1  UNL1        0.0076
      6 C          60.3342   88.4359    8.8947 C.ar    1  UNL1        0.0870
      7 C          63.1814   89.5786   12.1868 C.ar    1  UNL1        0.0193
      8 C          63.7468   90.9668   12.2411 C.ar    1  UNL1        0.0031
      9 C          64.6958   91.3477   13.3384 C.ar    1  UNL1        0.0207
     10 C          65.0795   90.3403   14.3815 C.ar    1  UNL1        0.0989
     11 N          64.5141   88.9520   14.3272 N.ar    1  UNL1       -0.2423
     12 C          63.5650   88.5712   13.2298 C.ar    1  UNL1        0.0988
     13 C          59.3851   88.0550    7.7972 C.2     1  UNL1        0.2457
     14 N          58.6654   86.7401    7.8509 N.am    1  UNL1       -0.3252
     15 O          59.1558   88.9891    6.6462 O.2     1  UNL1       -0.2703
     16 H          58.8159   86.1270    8.6064 H       1  UNL1        0.1453
     17 H          58.0425   86.4901    7.1307 H       1  UNL1        0.1453
     18 O          61.0041   85.9421    9.1808 O.3     1  UNL1       -0.4790
     19 C          63.3732   84.9709    8.7399 C.3     1  UNL1        0.0472
     20 C          62.0023   85.3264    8.2457 C.3     1  UNL1        0.1661
     21 C          61.6296   85.0660    6.8162 C.3     1  UNL1        0.0472
@<TRIPOS>BOND
     1    19    20    1
     2    20    21    1
     3    20    18    1
     4    18     1    1
     5     1     2   ar
     6     2     3   ar
     7     3     7    1
     8     7     8   ar
     9     8     9   ar
    10     9    10   ar
    11    10    11   ar
    12    11    12   ar
    13     3     4   ar
    14     4     5   ar
    15     5     6   ar
    16     6    13    1
    17    13    14   am
    18    13    15    2
    19     6     1   ar
    20    12     7   ar
    21    14    16    1
    22    14    17    1
@<TRIPOS>MOLECULE
*****
 21 22 0 0 0
SMALL
GASTEIGER

@<TRIPOS>ATOM
      1 C          62.6605   84.2453   11.9462 C.ar    1  UNL1        0.1427
      2 C          62.1056   85.6122   11.6748 C.ar    1  UNL1        0.0371
      3 C          62.2061   86.2031   10.2998 C.ar    1  UNL1        0.0045
      4 C          62.8615   85.4271    9.1961 C.ar    1  UNL1        0.0004
      5 C          63.4164   84.0602    9.4674 C.ar    1  UNL1        0.0076
      6 C          63.3159   83.4693   10.8424 C.ar    1  UNL1        0.0870
      7 C          61.6512   87.5700   10.0285 C.ar    1  UNL1        0.0193
      8 C          62.2891   88.7758   10.6523 C.ar    1  UNL1        0.0031
      9 C          61.7343   90.1427   10.3811 C.ar    1  UNL1        0.0207
     10 C          60.5414   90.3039    9.4860 C.ar    1  UNL1        0.0989
     11 N          59.9034   89.0981    8.8622 N.ar    1  UNL1       -0.2423
     12 C          60.4583   87.7312    9.1335 C.ar    1  UNL1        0.0988
     13 C          63.8709   82.1023   11.1137 C.2     1  UNL1        0.2457
     14 N          64.8873   81.9075   12.1995 N.am    1  UNL1       -0.3252
     15 O          63.4094   80.9303   10.2993 O.2     1  UNL1       -0.2703
     16 H          65.1902   82.6767   12.7341 H       1  UNL1        0.1453
     17 H          65.2515   81.0103   12.3776 H       1  UNL1        0.1453
     18 O          62.5600   83.6544   13.3212 O.3     1  UNL1       -0.4790
     19 C          62.4756   84.5395   15.7624 C.3     1  UNL1        0.0472
     20 C          63.2266   84.3343   14.4802 C.3     1  UNL1        0.1661
     21 C          64.6442   84.8090   14.3572 C.3     1  UNL1        0.0472
@<TRIPOS>BOND
     1    19    20    1
     2    20    21    1
     3    20    18    1
     4    18     1    1
     5     1     2   ar
     6     2     3   ar
     7     3     7    1
     8     7     8   ar
     9     8     9   ar
    10     9    10   ar
    11    10    11   ar
    12    11    12   ar
    13     3     4   ar
    14     4     5   ar
    15     5     6   ar
    16     6    13    1
    17    13    14   am
    18    13    15    2
    19     6     1   ar
    20    12     7   ar
    21    14    16    1
    22    14    17    1
@<TRIPOS>MOLECULE
*****
 21 22 0 0 0
SMALL
GASTEIGER

@<TRIPOS>ATOM
      1 C          62.6730   84.5582   12.8160 C.ar    1  UNL1        0.1427
      2 C          61.9972   85.6688   12.0679 C.ar    1  UNL1        0.0371
      3 C          62.0746   85.7203   10.5707 C.ar    1  UNL1        0.0045
      4 C          62.8278   84.6612    9.8218 C.ar    1  UNL1        0.0004
      5 C          63.5036   83.5506   10.5700 C.ar    1  UNL1        0.0076
      6 C          63.4262   83.4991   12.0671 C.ar    1  UNL1        0.0870
      7 C          61.3987   86.8310    9.8226 C.ar    1  UNL1        0.0193
      8 C          60.4233   86.5131    8.7282 C.ar    1  UNL1        0.0031
      9 C          59.7475   87.6237    7.9801 C.ar    1  UNL1        0.0207
     10 C          60.0470   89.0522    8.3262 C.ar    1  UNL1        0.0989
     11 N          61.0223   89.3700    9.4206 N.ar    1  UNL1       -0.2423
     12 C          61.6982   88.2594   10.1688 C.ar    1  UNL1        0.0988
     13 C          64.1021   82.3885   12.8153 C.2     1  UNL1        0.2457
     14 N          63.5097   81.8771   14.0950 N.am    1  UNL1       -0.3252
     15 O          65.3703   81.7892   12.2837 O.2     1  UNL1       -0.2703
     16 H          62.6773   82.2704   14.4438 H       1  UNL1        0.1453
     17 H          63.9533   81.1482   14.5860 H       1  UNL1        0.1453
     18 O          62.5957   84.5067   14.3132 O.3     1  UNL1       -0.4790
     19 C          63.1825   85.7894   16.4950 C.3     1  UNL1        0.0472
     20 C          63.5797   85.2779   15.1420 C.3     1  UNL1        0.1661
     21 C          64.9610   85.5376   14.6178 C.3     1  UNL1        0.0472
@<TRIPOS>BOND
     1    19    20    1
     2    20    21    1
     3    20    18    1
     4    18     1    1
     5     1     2   ar
     6     2     3   ar
     7     3     7    1
     8     7     8   ar
     9     8     9   ar
    10     9    10   ar
    11    10    11   ar
    12    11    12   ar
    13     3     4   ar
    14     4     5   ar
    15     5     6   ar
    16     6    13    1
    17    13    14   am
    18    13    15    2
    19     6     1   ar
    20    12     7   ar
    21    14    16    1
    22    14    17    1
