@<TRIPOS>MOLECULE
*****
 52 55 0 0 0
SMALL
GASTEIGER

@<TRIPOS>ATOM
      1 C          63.8088   91.4530   10.9968 C.3     1  UNL1        0.0798
      2 C          64.8628   91.6587   13.3625 C.2     1  UNL1        0.2436
      3 O          65.2867   93.0635   13.0515 O.2     1  UNL1       -0.2731
      4 N          64.1238   90.8534   12.3352 N.am    1  UNL1       -0.2778
      5 C          63.6999   89.4485   12.6462 C.3     1  UNL1        0.1148
      6 C          65.1779   91.0591   14.7009 C.3     1  UNL1        0.1498
      7 N          63.5638   87.7221   16.1185 N.am    1  UNL1       -0.2567
      8 C          62.4588   87.2999   17.0407 C.3     1  UNL1        0.1168
      9 C          63.8183   89.1795   15.8708 C.2     1  UNL1        0.3046
     10 O          62.9678   90.2146   16.5455 O.2     1  UNL1       -0.2526
     11 N          64.9234   89.6018   14.9486 N.am    1  UNL1       -0.2824
     12 H          65.4816   88.9224   14.5058 H       1  UNL1        0.1514
     13 C          64.4143   86.6870   15.4438 C.3     1  UNL1        0.1413
     14 C          63.4830   83.1664   14.1009 C.ar    1  UNL1        0.0875
     15 N          64.3518   84.3891   14.0799 N.ar    1  UNL1       -0.2453
     16 C          63.8412   85.3385   15.1229 C.ar    1  UNL1        0.0858
     17 C          62.6568   84.7027   15.7885 C.ar    1  UNL1        0.0530
     18 S          62.4354   83.3603   15.1570 S.2     1  UNL1       -0.0705
     19 C          64.5807   81.9974   12.0569 C.3     1  UNL1        0.0069
     20 C          63.6350   81.9615   13.2205 C.3     1  UNL1        0.0465
     21 C          62.8412   80.7207   13.5039 C.3     1  UNL1        0.0069
     22 C          65.7475   91.9169   15.7916 C.3     1  UNL1        0.0270
     23 C          67.2208   92.1951   15.8348 C.3     1  UNL1        0.0022
     24 C          64.8438   92.4964   16.8393 C.3     1  UNL1        0.0022
     25 C          62.9590   90.6980   10.0181 C.3     1  UNL1        0.0219
     26 C          61.5768   90.2623   10.4049 C.3     1  UNL1        0.0217
     27 C          60.8097   89.3267    9.5182 C.3     1  UNL1        0.0792
     28 N          60.4424   89.7454    8.1254 N.am    1  UNL1       -0.2720
     29 C          59.3754   89.0038    7.3761 C.2     1  UNL1        0.4019
     30 O          58.6756   87.8435    8.0196 O.2     1  UNL1       -0.2264
     31 H          60.9018   90.5069    7.7031 H       1  UNL1        0.1527
     32 O          59.0081   89.4224    5.9833 O.3     1  UNL1       -0.4291
     33 C          58.8392   90.8768    5.6573 C.3     1  UNL1        0.2447
     34 C          59.7393   91.5292    4.6503 C.ar    1  UNL1        0.0714
     35 C          61.2024   91.2541    4.4666 C.ar    1  UNL1        0.1053
     36 N          61.7018   92.1261    3.3529 N.ar    1  UNL1       -0.2350
     37 C          60.5473   92.9402    2.8484 C.ar    1  UNL1        0.1343
     38 S          59.3345   92.5712    3.6502 S.2     1  UNL1       -0.0652
     39 C          60.4098   87.9725   10.0243 C.3     1  UNL1        0.0460
     40 C          61.3603   86.8178    9.9085 C.ar    1  UNL1       -0.0205
     41 C          61.9933   86.4969    8.5870 C.ar    1  UNL1       -0.0042
     42 C          62.9437   85.3423    8.4714 C.ar    1  UNL1       -0.0003
     43 C          63.2613   84.5086    9.6772 C.ar    1  UNL1       -0.0000
     44 C          62.6284   84.8294   10.9987 C.ar    1  UNL1       -0.0003
     45 C          61.6779   85.9841   11.1144 C.ar    1  UNL1       -0.0042
     46 C          64.3435   92.8076   10.6372 C.3     1  UNL1        0.0461
     47 C          65.7706   92.9589   10.2009 C.ar    1  UNL1       -0.0205
     48 C          66.6872   91.7716   10.2090 C.ar    1  UNL1       -0.0042
     49 C          68.1144   91.9229    9.7727 C.ar    1  UNL1       -0.0003
     50 C          68.6249   93.2615    9.3283 C.ar    1  UNL1       -0.0000
     51 C          67.7082   94.4489    9.3202 C.ar    1  UNL1       -0.0003
     52 C          66.2811   94.2975    9.7565 C.ar    1  UNL1       -0.0042
@<TRIPOS>BOND
     1    19    20    1
     2    20    21    1
     3    20    14    1
     4    14    15   ar
     5    15    16   ar
     6    16    13    1
     7    13     7    1
     8     7     8    1
     9     7     9   am
    10     9    10    2
    11     9    11   am
    12     6    11    1
    13     6     2    1
    14     2     3    2
    15     2     4   am
    16     4     5    1
    17     4     1    1
    18     1    25    1
    19    25    26    1
    20    27    26    1
    21    27    39    1
    22    39    40    1
    23    40    41   ar
    24    41    42   ar
    25    42    43   ar
    26    43    44   ar
    27    44    45   ar
    28    27    28    1
    29    28    29   am
    30    29    30    2
    31    29    32    1
    32    32    33    1
    33    33    34    1
    34    34    35   ar
    35    35    36   ar
    36    36    37   ar
    37    37    38   ar
    38     1    46    1
    39    46    47    1
    40    47    48   ar
    41    48    49   ar
    42    49    50   ar
    43    50    51   ar
    44    51    52   ar
    45     6    22    1
    46    22    23    1
    47    22    24    1
    48    16    17   ar
    49    17    18   ar
    50    18    14   ar
    51    45    40   ar
    52    38    34   ar
    53    52    47   ar
    54    11    12    1
    55    28    31    1
@<TRIPOS>MOLECULE
*****
 52 55 0 0 0
SMALL
GASTEIGER

@<TRIPOS>ATOM
      1 C          62.4527   87.7156   11.1803 C.3     1  UNL1        0.0798
      2 C          60.7092   88.2871    9.3409 C.2     1  UNL1        0.2436
      3 O          60.0146   89.2192   10.2890 O.2     1  UNL1       -0.2731
      4 N          61.9282   87.5353    9.7866 N.am    1  UNL1       -0.2778
      5 C          62.6228   86.6032    8.8386 C.3     1  UNL1        0.1148
      6 C          60.1847   88.1069    7.9472 C.3     1  UNL1        0.1498
      7 N          59.0290   90.9481    5.4289 N.am    1  UNL1       -0.2567
      8 C          57.7605   91.5133    4.8619 C.3     1  UNL1        0.1168
      9 C          58.9726   89.8100    6.4046 C.2     1  UNL1        0.3046
     10 O          57.6478   89.2373    6.8131 O.2     1  UNL1       -0.2526
     11 N          60.2410   89.2448    6.9717 N.am    1  UNL1       -0.2824
     12 H          61.1105   89.6208    6.7035 H       1  UNL1        0.1514
     13 C          60.3537   91.5208    5.0205 C.3     1  UNL1        0.1413
     14 C          60.0225   93.3737    1.6259 C.ar    1  UNL1        0.0875
     15 N          59.4298   92.8802    2.9125 N.ar    1  UNL1       -0.2453
     16 C          60.5076   92.1710    3.6775 C.ar    1  UNL1        0.0858
     17 C          61.7666   92.2262    2.8637 C.ar    1  UNL1        0.0530
     18 S          61.4667   92.9695    1.5958 S.2     1  UNL1       -0.0705
     19 C          59.4850   95.6208    0.4379 C.3     1  UNL1        0.0069
     20 C          59.2982   94.1373    0.5571 C.3     1  UNL1        0.0465
     21 C          58.3870   93.4174   -0.3923 C.3     1  UNL1        0.0069
     22 C          59.6039   86.7886    7.5291 C.3     1  UNL1        0.0270
     23 C          60.4453   85.8049    6.7712 C.3     1  UNL1        0.0022
     24 C          58.1816   86.4541    7.8688 C.3     1  UNL1        0.0022
     25 C          63.2316   88.9474   11.5351 C.3     1  UNL1        0.0219
     26 C          62.7140   89.8857   12.5846 C.3     1  UNL1        0.0217
     27 C          63.6709   90.7258   13.3775 C.3     1  UNL1        0.0792
     28 N          64.5444   91.7270   12.6813 N.am    1  UNL1       -0.2720
     29 C          65.9356   91.9837   13.1800 C.2     1  UNL1        0.4019
     30 O          66.4534   91.2392   14.3748 O.2     1  UNL1       -0.2264
     31 H          64.2046   92.2156   11.8971 H       1  UNL1        0.1527
     32 O          66.8091   92.9849   12.4838 O.3     1  UNL1       -0.4291
     33 C          66.2262   94.2785   11.9970 C.3     1  UNL1        0.2447
     34 C          66.6698   94.8541   10.6848 C.ar    1  UNL1        0.0714
     35 C          66.7407   96.3124   10.3406 C.ar    1  UNL1        0.1053
     36 N          67.2351   96.4321    8.9295 N.ar    1  UNL1       -0.2350
     37 C          67.4696   95.0479    8.4015 C.ar    1  UNL1        0.1343
     38 S          67.1203   94.0726    9.4863 S.2     1  UNL1       -0.0652
     39 C          63.7544   90.5646   14.8664 C.3     1  UNL1        0.0460
     40 C          63.6891   89.1963   15.4776 C.ar    1  UNL1       -0.0205
     41 C          62.9091   88.9750   16.7395 C.ar    1  UNL1       -0.0042
     42 C          62.8438   87.6067   17.3506 C.ar    1  UNL1       -0.0003
     43 C          63.5585   86.4597   16.6997 C.ar    1  UNL1       -0.0000
     44 C          64.3385   86.6810   15.4378 C.ar    1  UNL1       -0.0003
     45 C          64.4038   88.0493   14.8267 C.ar    1  UNL1       -0.0042
     46 C          62.1982   86.6639   12.2193 C.3     1  UNL1        0.0461
     47 C          62.9081   85.3449   12.1409 C.ar    1  UNL1       -0.0205
     48 C          63.6662   84.8295   13.3281 C.ar    1  UNL1       -0.0042
     49 C          64.3761   83.5104   13.2498 C.ar    1  UNL1       -0.0003
     50 C          64.3278   82.7067   11.9842 C.ar    1  UNL1       -0.0000
     51 C          63.5696   83.2222   10.7969 C.ar    1  UNL1       -0.0003
     52 C          62.8598   84.5412   10.8753 C.ar    1  UNL1       -0.0042
@<TRIPOS>BOND
     1    19    20    1
     2    20    21    1
     3    20    14    1
     4    14    15   ar
     5    15    16   ar
     6    16    13    1
     7    13     7    1
     8     7     8    1
     9     7     9   am
    10     9    10    2
    11     9    11   am
    12     6    11    1
    13     6     2    1
    14     2     3    2
    15     2     4   am
    16     4     5    1
    17     4     1    1
    18     1    25    1
    19    25    26    1
    20    27    26    1
    21    27    39    1
    22    39    40    1
    23    40    41   ar
    24    41    42   ar
    25    42    43   ar
    26    43    44   ar
    27    44    45   ar
    28    27    28    1
    29    28    29   am
    30    29    30    2
    31    29    32    1
    32    32    33    1
    33    33    34    1
    34    34    35   ar
    35    35    36   ar
    36    36    37   ar
    37    37    38   ar
    38     1    46    1
    39    46    47    1
    40    47    48   ar
    41    48    49   ar
    42    49    50   ar
    43    50    51   ar
    44    51    52   ar
    45     6    22    1
    46    22    23    1
    47    22    24    1
    48    16    17   ar
    49    17    18   ar
    50    18    14   ar
    51    45    40   ar
    52    38    34   ar
    53    52    47   ar
    54    11    12    1
    55    28    31    1
@<TRIPOS>MOLECULE
*****
 52 55 0 0 0
SMALL
GASTEIGER

@<TRIPOS>ATOM
      1 C          63.1442   90.7540   11.4580 C.3     1  UNL1        0.0798
      2 C          63.2352   89.9706   13.9335 C.2     1  UNL1        0.2436
      3 O          63.3131   91.3996   14.3828 O.2     1  UNL1       -0.2731
      4 N          63.1508   89.6478   12.4711 N.am    1  UNL1       -0.2778
      5 C          63.0730   88.2188   12.0217 C.3     1  UNL1        0.1148
      6 C          63.2418   88.8644   14.9465 C.3     1  UNL1        0.1498
      7 N          64.3879   85.1304   14.2437 N.am    1  UNL1       -0.2567
      8 C          65.5911   84.2570   14.4430 C.3     1  UNL1        0.1168
      9 C          64.4165   86.5608   14.6948 C.2     1  UNL1        0.3046
     10 O          65.6481   87.1176   15.3451 O.2     1  UNL1       -0.2526
     11 N          63.2134   87.4341   14.4955 N.am    1  UNL1       -0.2824
     12 H          62.4050   87.0686   14.0686 H       1  UNL1        0.1514
     13 C          63.1563   84.5735   13.5934 C.3     1  UNL1        0.1413
     14 C          63.1108   81.3558   11.4231 C.ar    1  UNL1        0.0875
     15 N          62.7777   82.0864   12.6902 N.ar    1  UNL1       -0.2453
     16 C          63.2773   83.4946   12.5584 C.ar    1  UNL1        0.0858
     17 C          63.9192   83.6343   11.2098 C.ar    1  UNL1        0.0530
     18 S          63.8163   82.3126   10.5082 S.2     1  UNL1       -0.0705
     19 C          62.4942   78.9691   12.2437 C.3     1  UNL1        0.0069
     20 C          62.7941   79.9206   11.1236 C.3     1  UNL1        0.0465
     21 C          62.7772   79.4368    9.7038 C.3     1  UNL1        0.0069
     22 C          63.2769   89.1885   16.4107 C.3     1  UNL1        0.0270
     23 C          63.6347   90.5728   16.8640 C.3     1  UNL1        0.0022
     24 C          62.9543   88.1282   17.4215 C.3     1  UNL1        0.0022
     25 C          62.4092   90.5798   10.1621 C.3     1  UNL1        0.0219
     26 C          60.9865   90.1047   10.1648 C.3     1  UNL1        0.0217
     27 C          60.4972   89.1956    9.0766 C.3     1  UNL1        0.0792
     28 N          60.2260   89.7437    7.7069 N.am    1  UNL1       -0.2720
     29 C          59.0372   89.2631    6.9286 C.2     1  UNL1        0.4019
     30 O          58.1195   88.2345    7.5199 O.2     1  UNL1       -0.2264
     31 H          60.8283   90.4189    7.3187 H       1  UNL1        0.1527
     32 O          58.7660   89.8113    5.5589 O.3     1  UNL1       -0.4291
     33 C          58.9237   91.2792    5.2937 C.3     1  UNL1        0.2447
     34 C          59.9934   91.7619    4.3595 C.ar    1  UNL1        0.0714
     35 C          61.4279   91.3232    4.3596 C.ar    1  UNL1        0.1053
     36 N          62.1375   92.0582    3.2614 N.ar    1  UNL1       -0.2350
     37 C          61.1417   92.9512    2.5825 C.ar    1  UNL1        0.1343
     38 S          59.8166   92.7681    3.2612 S.2     1  UNL1       -0.0652
     39 C          60.2791   87.7385    9.3580 C.3     1  UNL1        0.0460
     40 C          61.0639   86.7039    8.6071 C.ar    1  UNL1       -0.0205
     41 C          62.4884   86.4236    8.9839 C.ar    1  UNL1       -0.0042
     42 C          63.2731   85.3890    8.2331 C.ar    1  UNL1       -0.0003
     43 C          62.6332   84.6348    7.1054 C.ar    1  UNL1       -0.0000
     44 C          61.2087   84.9151    6.7285 C.ar    1  UNL1       -0.0003
     45 C          60.4240   85.9497    7.4794 C.ar    1  UNL1       -0.0042
     46 C          63.8727   92.0344   11.7409 C.3     1  UNL1        0.0461
     47 C          65.3697   92.0793   11.6595 C.ar    1  UNL1       -0.0205
     48 C          66.1946   91.8678   12.8943 C.ar    1  UNL1       -0.0042
     49 C          67.6918   91.9128   12.8129 C.ar    1  UNL1       -0.0003
     50 C          68.3640   92.1692   11.4967 C.ar    1  UNL1       -0.0000
     51 C          67.5390   92.3807   10.2619 C.ar    1  UNL1       -0.0003
     52 C          66.0419   92.3358   10.3433 C.ar    1  UNL1       -0.0042
@<TRIPOS>BOND
     1    19    20    1
     2    20    21    1
     3    20    14    1
     4    14    15   ar
     5    15    16   ar
     6    16    13    1
     7    13     7    1
     8     7     8    1
     9     7     9   am
    10     9    10    2
    11     9    11   am
    12     6    11    1
    13     6     2    1
    14     2     3    2
    15     2     4   am
    16     4     5    1
    17     4     1    1
    18     1    25    1
    19    25    26    1
    20    27    26    1
    21    27    39    1
    22    39    40    1
    23    40    41   ar
    24    41    42   ar
    25    42    43   ar
    26    43    44   ar
    27    44    45   ar
    28    27    28    1
    29    28    29   am
    30    29    30    2
    31    29    32    1
    32    32    33    1
    33    33    34    1
    34    34    35   ar
    35    35    36   ar
    36    36    37   ar
    37    37    38   ar
    38     1    46    1
    39    46    47    1
    40    47    48   ar
    41    48    49   ar
    42    49    50   ar
    43    50    51   ar
    44    51    52   ar
    45     6    22    1
    46    22    23    1
    47    22    24    1
    48    16    17   ar
    49    17    18   ar
    50    18    14   ar
    51    45    40   ar
    52    38    34   ar
    53    52    47   ar
    54    11    12    1
    55    28    31    1
@<TRIPOS>MOLECULE
*****
 52 55 0 0 0
SMALL
GASTEIGER

@<TRIPOS>ATOM
      1 C          62.3614   86.7520   11.7800 C.3     1  UNL1        0.0798
      2 C          63.2565   89.0770   12.5171 C.2     1  UNL1        0.2436
      3 O          63.0868   88.6864   13.9553 O.2     1  UNL1       -0.2731
      4 N          62.8938   88.1098   11.4294 N.am    1  UNL1       -0.2778
      5 C          63.0636   88.5004    9.9911 C.3     1  UNL1        0.1148
      6 C          63.7890   90.4348   12.1664 C.3     1  UNL1        0.1498
      7 N          66.2182   91.9879   14.8935 N.am    1  UNL1       -0.2567
      8 C          66.1580   92.5179   16.2954 C.3     1  UNL1        0.1168
      9 C          64.9734   91.4763   14.2309 C.2     1  UNL1        0.3046
     10 O          63.6685   91.4948   14.9703 O.2     1  UNL1       -0.2526
     11 N          65.0337   90.9463   12.8290 N.am    1  UNL1       -0.2824
     12 H          65.8902   90.9342   12.3437 H       1  UNL1        0.1514
     13 C          67.5232   91.9694   14.1541 C.3     1  UNL1        0.1413
     14 C          67.2312   93.6584   10.6716 C.ar    1  UNL1        0.0875
     15 N          66.9123   93.6131   12.1367 N.ar    1  UNL1       -0.2453
     16 C          67.5781   92.4015   12.7188 C.ar    1  UNL1        0.0858
     17 C          68.3085   91.6980   11.6135 C.ar    1  UNL1        0.0530
     18 S          68.0941   92.4748   10.3483 S.2     1  UNL1       -0.0705
     19 C          65.7297   95.7038   10.1135 C.3     1  UNL1        0.0069
     20 C          66.7684   94.7037    9.7005 C.3     1  UNL1        0.0465
     21 C          67.3444   94.7488    8.3162 C.3     1  UNL1        0.0069
     22 C          63.0768   91.2810   11.1533 C.3     1  UNL1        0.0270
     23 C          61.5859   91.1903   11.0152 C.3     1  UNL1        0.0022
     24 C          63.8554   92.2180   10.2781 C.3     1  UNL1        0.0022
     25 C          60.9729   86.3616   11.3681 C.3     1  UNL1        0.0219
     26 C          60.0548   87.3825   10.7641 C.3     1  UNL1        0.0217
     27 C          59.9616   87.5186    9.2731 C.3     1  UNL1        0.0792
     28 N          60.1615   88.8581    8.6283 N.am    1  UNL1       -0.2720
     29 C          59.3111   89.2629    7.4609 C.2     1  UNL1        0.4019
     30 O          58.2607   88.3282    6.9383 O.2     1  UNL1       -0.2264
     31 H          60.8509   89.4715    8.9714 H       1  UNL1        0.1527
     32 O          59.5110   90.6024    6.8161 O.3     1  UNL1       -0.4291
     33 C          59.0197   90.8433    5.4195 C.3     1  UNL1        0.2447
     34 C          59.8939   91.5538    4.4290 C.ar    1  UNL1        0.0714
     35 C          61.3628   91.3264    4.2271 C.ar    1  UNL1        0.1053
     36 N          61.8294   92.2485    3.1399 N.ar    1  UNL1       -0.2350
     37 C          60.6490   93.0457    2.6698 C.ar    1  UNL1        0.1343
     38 S          59.4528   92.6163    3.4666 S.2     1  UNL1       -0.0652
     39 C          59.6686   86.3152    8.4270 C.3     1  UNL1        0.0460
     40 C          60.7783   85.6329    7.6834 C.ar    1  UNL1       -0.0205
     41 C          62.1774   85.6717    8.2228 C.ar    1  UNL1       -0.0042
     42 C          63.2871   84.9894    7.4791 C.ar    1  UNL1       -0.0003
     43 C          62.9977   84.2683    6.1961 C.ar    1  UNL1       -0.0000
     44 C          61.5986   84.2294    5.6567 C.ar    1  UNL1       -0.0003
     45 C          60.4889   84.9117    6.4003 C.ar    1  UNL1       -0.0042
     46 C          63.2174   85.7847   12.5427 C.3     1  UNL1        0.0461
     47 C          63.1837   84.3241   12.2030 C.ar    1  UNL1       -0.0205
     48 C          63.7055   83.8498   10.8790 C.ar    1  UNL1       -0.0042
     49 C          63.6718   82.3891   10.5393 C.ar    1  UNL1       -0.0003
     50 C          63.1164   81.4028   11.5235 C.ar    1  UNL1       -0.0000
     51 C          62.5947   81.8771   12.8475 C.ar    1  UNL1       -0.0003
     52 C          62.6284   83.3378   13.1872 C.ar    1  UNL1       -0.0042
@<TRIPOS>BOND
     1    19    20    1
     2    20    21    1
     3    20    14    1
     4    14    15   ar
     5    15    16   ar
     6    16    13    1
     7    13     7    1
     8     7     8    1
     9     7     9   am
    10     9    10    2
    11     9    11   am
    12     6    11    1
    13     6     2    1
    14     2     3    2
    15     2     4   am
    16     4     5    1
    17     4     1    1
    18     1    25    1
    19    25    26    1
    20    27    26    1
    21    27    39    1
    22    39    40    1
    23    40    41   ar
    24    41    42   ar
    25    42    43   ar
    26    43    44   ar
    27    44    45   ar
    28    27    28    1
    29    28    29   am
    30    29    30    2
    31    29    32    1
    32    32    33    1
    33    33    34    1
    34    34    35   ar
    35    35    36   ar
    36    36    37   ar
    37    37    38   ar
    38     1    46    1
    39    46    47    1
    40    47    48   ar
    41    48    49   ar
    42    49    50   ar
    43    50    51   ar
    44    51    52   ar
    45     6    22    1
    46    22    23    1
    47    22    24    1
    48    16    17   ar
    49    17    18   ar
    50    18    14   ar
    51    45    40   ar
    52    38    34   ar
    53    52    47   ar
    54    11    12    1
    55    28    31    1
@<TRIPOS>MOLECULE
*****
 52 55 0 0 0
SMALL
GASTEIGER

@<TRIPOS>ATOM
      1 C          63.9473   90.4304   12.4836 C.3     1  UNL1        0.0798
      2 C          62.4362   89.6172   10.5329 C.2     1  UNL1        0.2436
      3 O          62.5298   90.9719    9.8957 O.2     1  UNL1       -0.2731
      4 N          63.1450   89.3465   11.8268 N.am    1  UNL1       -0.2778
      5 C          63.0514   87.9918   12.4641 C.3     1  UNL1        0.1148
      6 C          61.6339   88.5333    9.8762 C.3     1  UNL1        0.1498
      7 N          62.3668   85.1514    7.9330 N.am    1  UNL1       -0.2567
      8 C          61.7647   84.3177    6.8410 C.3     1  UNL1        0.1168
      9 C          61.6992   86.4255    8.3586 C.2     1  UNL1        0.3046
     10 O          60.4297   86.8660    7.6921 O.2     1  UNL1       -0.2526
     11 N          62.3013   87.2592    9.4506 N.am    1  UNL1       -0.2824
     12 H          63.1346   86.9701    9.8880 H       1  UNL1        0.1514
     13 C          63.6363   84.7109    8.5995 C.3     1  UNL1        0.1413
     14 C          63.0209   83.1430   12.0965 C.ar    1  UNL1        0.0875
     15 N          62.7843   84.2265   11.0864 N.ar    1  UNL1       -0.2453
     16 C          63.5792   83.8965    9.8578 C.ar    1  UNL1        0.0858
     17 C          64.3071   82.6091   10.1086 C.ar    1  UNL1        0.0530
     18 S          63.9620   82.1434   11.4921 S.2     1  UNL1       -0.0705
     19 C          61.8641   81.7754   13.9782 C.3     1  UNL1        0.0069
     20 C          62.4216   83.0717   13.4697 C.3     1  UNL1        0.0465
     21 C          62.3799   84.2967   14.3343 C.3     1  UNL1        0.0069
     22 C          60.1641   88.7234    9.6450 C.3     1  UNL1        0.0270
     23 C          59.1773   88.2704   10.6798 C.3     1  UNL1        0.0022
     24 C          59.6810   89.3667    8.3788 C.3     1  UNL1        0.0022
     25 C          63.8955   91.8308   11.9486 C.3     1  UNL1        0.0219
     26 C          65.0376   92.3663   11.1370 C.3     1  UNL1        0.0217
     27 C          66.0820   93.2249   11.7870 C.3     1  UNL1        0.0792
     28 N          67.1893   92.5911   12.5758 N.am    1  UNL1       -0.2720
     29 C          68.3835   92.0223   11.8685 C.2     1  UNL1        0.4019
     30 O          68.4704   92.0871   10.3724 O.2     1  UNL1       -0.2264
     31 H          67.1322   92.5485   13.5577 H       1  UNL1        0.1527
     32 O          69.4909   91.3885   12.6573 O.3     1  UNL1       -0.4291
     33 C          69.9198   91.9885   13.9634 C.3     1  UNL1        0.2447
     34 C          68.8900   92.4770   14.9385 C.ar    1  UNL1        0.0714
     35 C          68.8831   93.8144   15.6177 C.ar    1  UNL1        0.1053
     36 N          67.6751   93.8778   16.5046 N.ar    1  UNL1       -0.2350
     37 C          66.9353   92.5795   16.3737 C.ar    1  UNL1        0.1343
     38 S          67.6862   91.7137   15.4058 S.2     1  UNL1       -0.0652
     39 C          66.0189   94.7170   11.6481 C.3     1  UNL1        0.0460
     40 C          66.1176   95.3488   10.2911 C.ar    1  UNL1       -0.0205
     41 C          65.0064   96.2214    9.7875 C.ar    1  UNL1       -0.0042
     42 C          65.1051   96.8532    8.4306 C.ar    1  UNL1       -0.0003
     43 C          66.3151   96.6123    7.5774 C.ar    1  UNL1       -0.0000
     44 C          67.4263   95.7398    8.0811 C.ar    1  UNL1       -0.0003
     45 C          67.3276   95.1080    9.4379 C.ar    1  UNL1       -0.0042
     46 C          64.8015   90.1140   13.6754 C.3     1  UNL1        0.0461
     47 C          64.2560   89.2644   14.7847 C.ar    1  UNL1       -0.0205
     48 C          64.5200   87.7879   14.7979 C.ar    1  UNL1       -0.0042
     49 C          63.9745   86.9383   15.9073 C.ar    1  UNL1       -0.0003
     50 C          63.1650   87.5653   17.0035 C.ar    1  UNL1       -0.0000
     51 C          62.9011   89.0419   16.9903 C.ar    1  UNL1       -0.0003
     52 C          63.4466   89.8914   15.8809 C.ar    1  UNL1       -0.0042
@<TRIPOS>BOND
     1    19    20    1
     2    20    21    1
     3    20    14    1
     4    14    15   ar
     5    15    16   ar
     6    16    13    1
     7    13     7    1
     8     7     8    1
     9     7     9   am
    10     9    10    2
    11     9    11   am
    12     6    11    1
    13     6     2    1
    14     2     3    2
    15     2     4   am
    16     4     5    1
    17     4     1    1
    18     1    25    1
    19    25    26    1
    20    27    26    1
    21    27    39    1
    22    39    40    1
    23    40    41   ar
    24    41    42   ar
    25    42    43   ar
    26    43    44   ar
    27    44    45   ar
    28    27    28    1
    29    28    29   am
    30    29    30    2
    31    29    32    1
    32    32    33    1
    33    33    34    1
    34    34    35   ar
    35    35    36   ar
    36    36    37   ar
    37    37    38   ar
    38     1    46    1
    39    46    47    1
    40    47    48   ar
    41    48    49   ar
    42    49    50   ar
    43    50    51   ar
    44    51    52   ar
    45     6    22    1
    46    22    23    1
    47    22    24    1
    48    16    17   ar
    49    17    18   ar
    50    18    14   ar
    51    45    40   ar
    52    38    34   ar
    53    52    47   ar
    54    11    12    1
    55    28    31    1
@<TRIPOS>MOLECULE
*****
 52 55 0 0 0
SMALL
GASTEIGER

@<TRIPOS>ATOM
      1 C          61.2698   88.5481   11.3842 C.3     1  UNL1        0.0798
      2 C          61.7249   86.0367   10.8987 C.2     1  UNL1        0.2436
      3 O          60.5241   85.9927   10.0009 O.2     1  UNL1       -0.2731
      4 N          62.0977   87.3144   11.5903 N.am    1  UNL1       -0.2778
      5 C          63.2986   87.3585   12.4882 C.3     1  UNL1        0.1148
      6 C          62.5528   84.8030   11.1049 C.3     1  UNL1        0.1498
      7 N          62.3800   81.6530   13.5127 N.am    1  UNL1       -0.2567
      8 C          62.5853   80.1682   13.4539 C.3     1  UNL1        0.1168
      9 C          62.5691   82.4856   12.2793 C.2     1  UNL1        0.3046
     10 O          62.9634   81.8336   10.9874 O.2     1  UNL1       -0.2526
     11 N          62.3638   83.9704   12.3381 N.am    1  UNL1       -0.2824
     12 H          62.1050   84.3983   13.1861 H       1  UNL1        0.1514
     13 C          61.9857   82.3050   14.8046 C.3     1  UNL1        0.1413
     14 C          63.1577   85.6698   16.3442 C.ar    1  UNL1        0.0875
     15 N          62.1091   84.6164   16.1416 N.ar    1  UNL1       -0.2453
     16 C          62.6891   83.5482   15.2626 C.ar    1  UNL1        0.0858
     17 C          64.0961   83.9414   14.9220 C.ar    1  UNL1        0.0530
     18 S          64.3857   85.2526   15.5905 S.2     1  UNL1       -0.0705
     19 C          63.1757   88.2625   16.5094 C.3     1  UNL1        0.0069
     20 C          63.0050   86.9208   17.1577 C.3     1  UNL1        0.0465
     21 C          62.6817   86.8299   18.6197 C.3     1  UNL1        0.0069
     22 C          63.5698   84.4020   10.0778 C.3     1  UNL1        0.0270
     23 C          64.8049   83.6602   10.4952 C.3     1  UNL1        0.0022
     24 C          63.3517   84.7428    8.6334 C.3     1  UNL1        0.0022
     25 C          61.8069   89.8884   11.7905 C.3     1  UNL1        0.0219
     26 C          62.9614   90.4907   11.0459 C.3     1  UNL1        0.0217
     27 C          64.0615   91.1795   11.7979 C.3     1  UNL1        0.0792
     28 N          63.7879   91.7783   13.1457 N.am    1  UNL1       -0.2720
     29 C          64.2322   91.0643   14.3879 C.2     1  UNL1        0.4019
     30 O          64.9500   89.7515   14.2822 O.2     1  UNL1       -0.2264
     31 H          63.3168   92.6400   13.2151 H       1  UNL1        0.1527
     32 O          63.9586   91.6631   15.7357 O.3     1  UNL1       -0.4291
     33 C          65.0539   92.3682   16.4794 C.3     1  UNL1        0.2447
     34 C          66.3636   92.6438   15.8021 C.ar    1  UNL1        0.0714
     35 C          66.5486   93.3695   14.5025 C.ar    1  UNL1        0.1053
     36 N          68.0175   93.4163   14.2026 N.ar    1  UNL1       -0.2350
     37 C          68.7405   92.7194   15.3170 C.ar    1  UNL1        0.1343
     38 S          67.7182   92.2420   16.3055 S.2     1  UNL1       -0.0652
     39 C          65.4351   91.2694   11.2021 C.3     1  UNL1        0.0460
     40 C          65.9516   92.5865   10.7033 C.ar    1  UNL1       -0.0205
     41 C          65.1983   93.8489   11.0013 C.ar    1  UNL1       -0.0042
     42 C          65.7148   95.1659   10.5025 C.ar    1  UNL1       -0.0003
     43 C          66.9845   95.2204    9.7057 C.ar    1  UNL1       -0.0000
     44 C          67.7378   93.9580    9.4078 C.ar    1  UNL1       -0.0003
     45 C          67.2213   92.6410    9.9066 C.ar    1  UNL1       -0.0042
     46 C          59.9047   88.4415   10.7717 C.3     1  UNL1        0.0461
     47 C          59.7279   88.6365    9.2950 C.ar    1  UNL1       -0.0205
     48 C          59.1705   87.5270    8.4534 C.ar    1  UNL1       -0.0042
     49 C          58.9937   87.7219    6.9766 C.ar    1  UNL1       -0.0003
     50 C          59.3743   89.0265    6.3415 C.ar    1  UNL1       -0.0000
     51 C          59.9317   90.1360    7.1831 C.ar    1  UNL1       -0.0003
     52 C          60.1084   89.9410    8.6598 C.ar    1  UNL1       -0.0042
@<TRIPOS>BOND
     1    19    20    1
     2    20    21    1
     3    20    14    1
     4    14    15   ar
     5    15    16   ar
     6    16    13    1
     7    13     7    1
     8     7     8    1
     9     7     9   am
    10     9    10    2
    11     9    11   am
    12     6    11    1
    13     6     2    1
    14     2     3    2
    15     2     4   am
    16     4     5    1
    17     4     1    1
    18     1    25    1
    19    25    26    1
    20    27    26    1
    21    27    39    1
    22    39    40    1
    23    40    41   ar
    24    41    42   ar
    25    42    43   ar
    26    43    44   ar
    27    44    45   ar
    28    27    28    1
    29    28    29   am
    30    29    30    2
    31    29    32    1
    32    32    33    1
    33    33    34    1
    34    34    35   ar
    35    35    36   ar
    36    36    37   ar
    37    37    38   ar
    38     1    46    1
    39    46    47    1
    40    47    48   ar
    41    48    49   ar
    42    49    50   ar
    43    50    51   ar
    44    51    52   ar
    45     6    22    1
    46    22    23    1
    47    22    24    1
    48    16    17   ar
    49    17    18   ar
    50    18    14   ar
    51    45    40   ar
    52    38    34   ar
    53    52    47   ar
    54    11    12    1
    55    28    31    1
@<TRIPOS>MOLECULE
*****
 52 55 0 0 0
SMALL
GASTEIGER

@<TRIPOS>ATOM
      1 C          61.9560   88.1753   11.3958 C.3     1  UNL1        0.0798
      2 C          62.9529   85.9968   10.3906 C.2     1  UNL1        0.2436
      3 O          63.1240   86.6851    9.0689 O.2     1  UNL1       -0.2731
      4 N          62.3689   86.7419   11.5541 N.am    1  UNL1       -0.2778
      5 C          62.1978   86.0537   12.8759 C.3     1  UNL1        0.1148
      6 C          63.3659   84.5635   10.5489 C.3     1  UNL1        0.1498
      7 N          62.9909   82.3748   13.8381 N.am    1  UNL1       -0.2567
      8 C          62.0979   81.3046   14.3923 C.3     1  UNL1        0.1168
      9 C          62.7319   82.9340   12.4705 C.2     1  UNL1        0.3046
     10 O          61.5798   82.4231   11.6572 O.2     1  UNL1       -0.2526
     11 N          63.6249   84.0043   11.9164 N.am    1  UNL1       -0.2824
     12 H          64.3811   84.3396   12.4502 H       1  UNL1        0.1514
     13 C          64.1430   82.8857   14.6514 C.3     1  UNL1        0.1413
     14 C          63.6857   86.4018   16.2307 C.ar    1  UNL1        0.0875
     15 N          63.3105   84.9531   16.1272 N.ar    1  UNL1       -0.2453
     16 C          64.1797   84.3228   15.0797 C.ar    1  UNL1        0.0858
     17 C          65.0921   85.3820   14.5358 C.ar    1  UNL1        0.0530
     18 S          64.7868   86.6668   15.2471 S.2     1  UNL1       -0.0705
     19 C          62.5559   86.9788   18.4979 C.3     1  UNL1        0.0069
     20 C          63.0682   87.4086   17.1553 C.3     1  UNL1        0.0465
     21 C          62.9630   88.8453   16.7373 C.3     1  UNL1        0.0069
     22 C          63.5198   83.6894    9.3396 C.3     1  UNL1        0.0270
     23 C          64.2169   82.3662    9.4545 C.3     1  UNL1        0.0022
     24 C          62.9766   84.1386    8.0155 C.3     1  UNL1        0.0022
     25 C          62.9591   89.2717   11.5997 C.3     1  UNL1        0.0219
     26 C          62.8243   90.2039   12.7670 C.3     1  UNL1        0.0217
     27 C          63.9967   91.0301   13.2064 C.3     1  UNL1        0.0792
     28 N          64.1833   92.4158   12.6633 N.am    1  UNL1       -0.2720
     29 C          64.6998   92.6116   11.2687 C.2     1  UNL1        0.4019
     30 O          65.0297   91.4216   10.4172 O.2     1  UNL1       -0.2264
     31 H          63.9668   93.1969   13.2222 H       1  UNL1        0.1527
     32 O          64.8864   93.9973   10.7256 O.3     1  UNL1       -0.4291
     33 C          66.2680   94.5547   10.5508 C.3     1  UNL1        0.2447
     34 C          67.2659   93.8312    9.6960 C.ar    1  UNL1        0.0714
     35 C          67.5854   94.1373    8.2628 C.ar    1  UNL1        0.1053
     36 N          68.6366   93.1699    7.8053 N.ar    1  UNL1       -0.2350
     37 C          68.9667   92.2659    8.9559 C.ar    1  UNL1        0.1343
     38 S          68.1196   92.6746   10.1244 S.2     1  UNL1       -0.0652
     39 C          64.9825   90.4705   14.1887 C.3     1  UNL1        0.0460
     40 C          66.1345   91.3099   14.6561 C.ar    1  UNL1       -0.0205
     41 C          65.9991   92.1473   15.8931 C.ar    1  UNL1       -0.0042
     42 C          67.1511   92.9867   16.3604 C.ar    1  UNL1       -0.0003
     43 C          68.4385   92.9885   15.5906 C.ar    1  UNL1       -0.0000
     44 C          68.5740   92.1511   14.3536 C.ar    1  UNL1       -0.0003
     45 C          67.4220   91.3118   13.8863 C.ar    1  UNL1       -0.0042
     46 C          60.5399   88.5122   11.0336 C.3     1  UNL1        0.0461
     47 C          60.0609   88.3237    9.6247 C.ar    1  UNL1       -0.0205
     48 C          60.0729   89.4785    8.6676 C.ar    1  UNL1       -0.0042
     49 C          59.5940   89.2901    7.2587 C.ar    1  UNL1       -0.0003
     50 C          59.1030   87.9466    6.8068 C.ar    1  UNL1       -0.0000
     51 C          59.0910   86.7917    7.7640 C.ar    1  UNL1       -0.0003
     52 C          59.5699   86.9802    9.1729 C.ar    1  UNL1       -0.0042
@<TRIPOS>BOND
     1    19    20    1
     2    20    21    1
     3    20    14    1
     4    14    15   ar
     5    15    16   ar
     6    16    13    1
     7    13     7    1
     8     7     8    1
     9     7     9   am
    10     9    10    2
    11     9    11   am
    12     6    11    1
    13     6     2    1
    14     2     3    2
    15     2     4   am
    16     4     5    1
    17     4     1    1
    18     1    25    1
    19    25    26    1
    20    27    26    1
    21    27    39    1
    22    39    40    1
    23    40    41   ar
    24    41    42   ar
    25    42    43   ar
    26    43    44   ar
    27    44    45   ar
    28    27    28    1
    29    28    29   am
    30    29    30    2
    31    29    32    1
    32    32    33    1
    33    33    34    1
    34    34    35   ar
    35    35    36   ar
    36    36    37   ar
    37    37    38   ar
    38     1    46    1
    39    46    47    1
    40    47    48   ar
    41    48    49   ar
    42    49    50   ar
    43    50    51   ar
    44    51    52   ar
    45     6    22    1
    46    22    23    1
    47    22    24    1
    48    16    17   ar
    49    17    18   ar
    50    18    14   ar
    51    45    40   ar
    52    38    34   ar
    53    52    47   ar
    54    11    12    1
    55    28    31    1
@<TRIPOS>MOLECULE
*****
 52 55 0 0 0
SMALL
GASTEIGER

@<TRIPOS>ATOM
      1 C          62.7130   86.3790   12.2006 C.3     1  UNL1        0.0798
      2 C          63.4206   88.7769   12.9074 C.2     1  UNL1        0.2436
      3 O          63.5778   88.3126   14.3250 O.2     1  UNL1       -0.2731
      4 N          62.9882   87.8101   11.8452 N.am    1  UNL1       -0.2778
      5 C          62.8310   88.2743   10.4275 C.3     1  UNL1        0.1148
      6 C          63.6958   90.2079   12.5519 C.3     1  UNL1        0.1498
      7 N          65.8289   92.1275   15.2933 N.am    1  UNL1       -0.2567
      8 C          65.6997   92.5825   16.7168 C.3     1  UNL1        0.1168
      9 C          64.6977   91.3952   14.6344 C.2     1  UNL1        0.3046
     10 O          63.4373   91.1180   15.3989 O.2     1  UNL1       -0.2526
     11 N          64.8269   90.9402   13.2109 N.am    1  UNL1       -0.2824
     12 H          65.6542   91.1222   12.7091 H       1  UNL1        0.1514
     13 C          67.0893   92.4048   14.5288 C.3     1  UNL1        0.1413
     14 C          67.3617   93.4004   10.7871 C.ar    1  UNL1        0.0875
     15 N          67.7117   92.4951   11.9308 N.ar    1  UNL1       -0.2453
     16 C          67.0172   93.0081   13.1574 C.ar    1  UNL1        0.0858
     17 C          66.2379   94.2305   12.7717 C.ar    1  UNL1        0.0530
     18 S          66.4508   94.4729   11.3068 S.2     1  UNL1       -0.0705
     19 C          68.5160   91.9942    8.9325 C.3     1  UNL1        0.0069
     20 C          67.8388   93.2582    9.3721 C.3     1  UNL1        0.0465
     21 C          67.6385   94.3801    8.3968 C.3     1  UNL1        0.0069
     22 C          62.8398   90.9067   11.5376 C.3     1  UNL1        0.0270
     23 C          63.4783   91.6512   10.4026 C.3     1  UNL1        0.0022
     24 C          61.3453   90.8611   11.6581 C.3     1  UNL1        0.0022
     25 C          61.6157   85.6308   11.5036 C.3     1  UNL1        0.0219
     26 C          60.7628   86.3271   10.4849 C.3     1  UNL1        0.0217
     27 C          61.2272   86.4303    9.0623 C.3     1  UNL1        0.0792
     28 N          60.7284   87.5436    8.1894 N.am    1  UNL1       -0.2720
     29 C          59.2954   87.5647    7.7464 C.2     1  UNL1        0.4019
     30 O          58.3613   86.4727    8.1763 O.2     1  UNL1       -0.2264
     31 H          61.3415   88.2603    7.9073 H       1  UNL1        0.1527
     32 O          58.7966   88.6780    6.8736 O.3     1  UNL1       -0.4291
     33 C          59.6928   89.8364    6.5500 C.3     1  UNL1        0.2447
     34 C          59.2824   90.8340    5.5078 C.ar    1  UNL1        0.0714
     35 C          57.8796   91.2787    5.2169 C.ar    1  UNL1        0.1053
     36 N          57.9328   92.2816    4.1028 N.ar    1  UNL1       -0.2350
     37 C          59.3685   92.4568    3.7050 C.ar    1  UNL1        0.1343
     38 S          60.2025   91.5621    4.5733 S.2     1  UNL1       -0.0652
     39 C          62.1904   85.4203    8.5126 C.3     1  UNL1        0.0460
     40 C          62.0253   84.9118    7.1110 C.ar    1  UNL1       -0.0205
     41 C          60.6938   84.3954    6.6525 C.ar    1  UNL1       -0.0042
     42 C          60.5288   83.8870    5.2510 C.ar    1  UNL1       -0.0003
     43 C          61.6954   83.8949    4.3081 C.ar    1  UNL1       -0.0000
     44 C          63.0269   84.4113    4.7666 C.ar    1  UNL1       -0.0003
     45 C          63.1919   84.9198    6.1681 C.ar    1  UNL1       -0.0042
     46 C          63.5352   85.6962   13.2532 C.3     1  UNL1        0.0461
     47 C          63.4754   84.2047   13.4012 C.ar    1  UNL1       -0.0205
     48 C          62.5536   83.5877   14.4108 C.ar    1  UNL1       -0.0042
     49 C          62.4937   82.0962   14.5590 C.ar    1  UNL1       -0.0003
     50 C          63.3557   81.2218   13.6974 C.ar    1  UNL1       -0.0000
     51 C          64.2776   81.8389   12.6877 C.ar    1  UNL1       -0.0003
     52 C          64.3374   83.3303   12.5396 C.ar    1  UNL1       -0.0042
@<TRIPOS>BOND
     1    19    20    1
     2    20    21    1
     3    20    14    1
     4    14    15   ar
     5    15    16   ar
     6    16    13    1
     7    13     7    1
     8     7     8    1
     9     7     9   am
    10     9    10    2
    11     9    11   am
    12     6    11    1
    13     6     2    1
    14     2     3    2
    15     2     4   am
    16     4     5    1
    17     4     1    1
    18     1    25    1
    19    25    26    1
    20    27    26    1
    21    27    39    1
    22    39    40    1
    23    40    41   ar
    24    41    42   ar
    25    42    43   ar
    26    43    44   ar
    27    44    45   ar
    28    27    28    1
    29    28    29   am
    30    29    30    2
    31    29    32    1
    32    32    33    1
    33    33    34    1
    34    34    35   ar
    35    35    36   ar
    36    36    37   ar
    37    37    38   ar
    38     1    46    1
    39    46    47    1
    40    47    48   ar
    41    48    49   ar
    42    49    50   ar
    43    50    51   ar
    44    51    52   ar
    45     6    22    1
    46    22    23    1
    47    22    24    1
    48    16    17   ar
    49    17    18   ar
    50    18    14   ar
    51    45    40   ar
    52    38    34   ar
    53    52    47   ar
    54    11    12    1
    55    28    31    1
@<TRIPOS>MOLECULE
*****
 52 55 0 0 0
SMALL
GASTEIGER

@<TRIPOS>ATOM
      1 C          62.0514   86.3809   10.0164 C.3     1  UNL1        0.0798
      2 C          63.1600   85.5585   12.2174 C.2     1  UNL1        0.2436
      3 O          63.0360   84.1388   11.7494 O.2     1  UNL1       -0.2731
      4 N          62.6677   86.6795   11.3509 N.am    1  UNL1       -0.2778
      5 C          62.7916   88.0993   11.8190 C.3     1  UNL1        0.1148
      6 C          63.7763   85.8572   13.5520 C.3     1  UNL1        0.1498
      7 N          63.3816   88.8234   16.1589 N.am    1  UNL1       -0.2567
      8 C          63.1446   89.0186   17.6271 C.3     1  UNL1        0.1168
      9 C          63.4604   87.4378   15.5895 C.2     1  UNL1        0.3046
     10 O          63.3022   86.2475   16.4885 O.2     1  UNL1       -0.2526
     11 N          63.6975   87.2427   14.1213 N.am    1  UNL1       -0.2824
     12 H          63.8013   88.0239   13.5313 H       1  UNL1        0.1514
     13 C          63.5399   90.0137   15.2600 C.3     1  UNL1        0.1413
     14 C          66.8917   91.9681   15.1518 C.ar    1  UNL1        0.0875
     15 N          66.0009   90.8663   14.6589 N.ar    1  UNL1       -0.2453
     16 C          64.7152   90.9301   15.4290 C.ar    1  UNL1        0.0858
     17 C          64.8113   92.0714   16.3977 C.ar    1  UNL1        0.0530
     18 S          66.1564   92.7129   16.2264 S.2     1  UNL1       -0.0705
     19 C          68.7425   91.7109   13.3468 C.3     1  UNL1        0.0069
     20 C          68.2747   92.2718   14.6569 C.3     1  UNL1        0.0465
     21 C          69.1900   93.1364   15.4722 C.3     1  UNL1        0.0069
     22 C          64.4713   84.7703   14.3172 C.3     1  UNL1        0.0270
     23 C          65.9412   84.8732   14.5983 C.3     1  UNL1        0.0022
     24 C          63.6966   83.5806   14.8013 C.3     1  UNL1        0.0022
     25 C          60.5650   86.4753    9.8387 C.3     1  UNL1        0.0219
     26 C          59.9052   87.8189    9.7409 C.3     1  UNL1        0.0217
     27 C          60.2063   88.7195    8.5797 C.3     1  UNL1        0.0792
     28 N          61.3533   89.6832    8.6558 N.am    1  UNL1       -0.2720
     29 C          61.5143   90.5639    9.8594 C.2     1  UNL1        0.4019
     30 O          60.5284   90.4809   10.9868 O.2     1  UNL1       -0.2264
     31 H          62.0004   89.7377    7.9158 H       1  UNL1        0.1527
     32 O          62.6613   91.5276    9.9355 O.3     1  UNL1       -0.4291
     33 C          63.7888   91.2775   10.8925 C.3     1  UNL1        0.2447
     34 C          64.8895   92.2866   11.0351 C.ar    1  UNL1        0.0714
     35 C          65.2782   92.9947   12.2990 C.ar    1  UNL1        0.1053
     36 N          66.4236   93.9105   11.9838 N.ar    1  UNL1       -0.2350
     37 C          66.7428   93.7684   10.5250 C.ar    1  UNL1        0.1343
     38 S          65.7946   92.7648    9.9387 S.2     1  UNL1       -0.0652
     39 C          59.3605   88.6565    7.3426 C.3     1  UNL1        0.0460
     40 C          59.3641   89.8006    6.3724 C.ar    1  UNL1       -0.0205
     41 C          58.0809   90.4979    6.0303 C.ar    1  UNL1       -0.0042
     42 C          58.0846   91.6419    5.0602 C.ar    1  UNL1       -0.0003
     43 C          59.3714   92.0886    4.4322 C.ar    1  UNL1       -0.0000
     44 C          60.6547   91.3914    4.7744 C.ar    1  UNL1       -0.0003
     45 C          60.6510   90.2473    5.7445 C.ar    1  UNL1       -0.0042
     46 C          62.9216   85.9878    8.8595 C.3     1  UNL1        0.0461
     47 C          62.3162   85.3293    7.6555 C.ar    1  UNL1       -0.0205
     48 C          63.2012   84.7053    6.6175 C.ar    1  UNL1       -0.0042
     49 C          62.5959   84.0467    5.4134 C.ar    1  UNL1       -0.0003
     50 C          61.1055   84.0122    5.2472 C.ar    1  UNL1       -0.0000
     51 C          60.2205   84.6362    6.2852 C.ar    1  UNL1       -0.0003
     52 C          60.8258   85.2947    7.4893 C.ar    1  UNL1       -0.0042
@<TRIPOS>BOND
     1    19    20    1
     2    20    21    1
     3    20    14    1
     4    14    15   ar
     5    15    16   ar
     6    16    13    1
     7    13     7    1
     8     7     8    1
     9     7     9   am
    10     9    10    2
    11     9    11   am
    12     6    11    1
    13     6     2    1
    14     2     3    2
    15     2     4   am
    16     4     5    1
    17     4     1    1
    18     1    25    1
    19    25    26    1
    20    27    26    1
    21    27    39    1
    22    39    40    1
    23    40    41   ar
    24    41    42   ar
    25    42    43   ar
    26    43    44   ar
    27    44    45   ar
    28    27    28    1
    29    28    29   am
    30    29    30    2
    31    29    32    1
    32    32    33    1
    33    33    34    1
    34    34    35   ar
    35    35    36   ar
    36    36    37   ar
    37    37    38   ar
    38     1    46    1
    39    46    47    1
    40    47    48   ar
    41    48    49   ar
    42    49    50   ar
    43    50    51   ar
    44    51    52   ar
    45     6    22    1
    46    22    23    1
    47    22    24    1
    48    16    17   ar
    49    17    18   ar
    50    18    14   ar
    51    45    40   ar
    52    38    34   ar
    53    52    47   ar
    54    11    12    1
    55    28    31    1
