@<TRIPOS>MOLECULE
*****
 41 46 0 0 0
SMALL
GASTEIGER

@<TRIPOS>ATOM
      1 C          63.2716   87.7134   12.4286 C.3     1  UNL1        0.1332
      2 N          62.4756   88.7445   11.6847 N.ar    1  UNL1       -0.2975
      3 C          62.3609   90.1967   12.0425 C.ar    1  UNL1        0.2017
      4 N          61.4690   90.8541   11.0314 N.ar    1  UNL1       -0.2134
      5 C          61.0325   89.8082   10.0487 C.ar    1  UNL1        0.1030
      6 C          60.1489   89.8746    8.8384 C.ar    1  UNL1        0.0581
      7 C          59.8875   88.6373    8.0319 C.ar    1  UNL1        0.1469
      8 C          60.5097   87.3335    8.4357 C.ar    1  UNL1        0.0391
      9 C          61.3932   87.2670    9.6460 C.ar    1  UNL1        0.0219
     10 C          61.6546   88.5044   10.4525 C.ar    1  UNL1        0.0801
     11 N          63.0220   90.8727   13.2070 N.pl3   1  UNL1       -0.2839
     12 H          62.5215   91.0146   14.0428 H       1  UNL1        0.1550
     13 C          64.4455   91.3327   13.0979 C.ar    1  UNL1        0.0501
     14 C          65.4096   91.0594   14.2141 C.ar    1  UNL1        0.0147
     15 C          66.8332   91.5193   14.1050 C.ar    1  UNL1        0.0009
     16 C          67.2927   92.2525   12.8798 C.ar    1  UNL1       -0.0042
     17 C          66.3287   92.5258   11.7636 C.ar    1  UNL1       -0.0216
     18 C          64.9050   92.0659   11.8726 C.ar    1  UNL1        0.0104
     19 C          66.7882   93.2590   10.5383 C.3     1  UNL1        0.0190
     20 C          65.7364   94.3033   10.7688 C.3     1  UNL1        0.0044
     21 C          67.8400   92.2147   10.3078 C.3     1  UNL1        0.0044
     22 C          67.2477   93.9922    9.3131 C.3     1  UNL1        0.0044
     23 O          59.0039   88.7036    6.8216 O.3     1  UNL1       -0.4533
     24 C          59.0273   89.9182    5.9416 C.ar    1  UNL1        0.1485
     25 C          57.8016   90.7730    5.8103 C.ar    1  UNL1        0.0582
     26 C          57.8251   91.9875    4.9304 C.ar    1  UNL1        0.1021
     27 N          59.0741   92.3473    4.1817 N.ar    1  UNL1       -0.2406
     28 C          60.2997   91.4926    4.3130 C.ar    1  UNL1        0.1181
     29 C          60.2763   90.2780    5.1930 C.ar    1  UNL1        0.0597
     30 C          61.5488   91.8524    3.5644 C.ar    1  UNL1        0.1585
     31 N          62.8859   91.1881    3.7094 N.ar    1  UNL1       -0.2239
     32 C          63.8435   91.8648    2.7740 C.ar    1  UNL1        0.1175
     33 C          63.0983   92.9473    2.0508 C.ar    1  UNL1        0.0771
     34 N          61.6800   92.9396    2.5393 N.ar    1  UNL1       -0.3361
     35 H          60.9615   93.5422    2.2398 H       1  UNL1        0.1675
     36 C          63.6707   93.8746    1.0200 C.ar    1  UNL1        0.0172
     37 C          63.3005   93.7108   -0.4243 C.ar    1  UNL1        0.0015
     38 C          63.8730   94.6381   -1.4550 C.ar    1  UNL1        0.0000
     39 C          64.8156   95.7292   -1.0414 C.ar    1  UNL1        0.0000
     40 C          65.1858   95.8930    0.4030 C.ar    1  UNL1        0.0000
     41 C          64.6133   94.9657    1.4337 C.ar    1  UNL1        0.0015
@<TRIPOS>BOND
     1     1     2    1
     2     2     3   ar
     3     3    11    1
     4    11    13    1
     5    13    14   ar
     6    14    15   ar
     7    15    16   ar
     8    16    17   ar
     9    17    19    1
    10    19    20    1
    11    19    21    1
    12    19    22    1
    13    17    18   ar
    14     3     4   ar
    15     4     5   ar
    16     5     6   ar
    17     6     7   ar
    18     7    23    1
    19    23    24    1
    20    24    25   ar
    21    25    26   ar
    22    26    27   ar
    23    27    28   ar
    24    28    30    1
    25    30    31   ar
    26    31    32   ar
    27    32    33   ar
    28    33    36    1
    29    36    37   ar
    30    37    38   ar
    31    38    39   ar
    32    39    40   ar
    33    40    41   ar
    34    33    34   ar
    35    28    29   ar
    36     7     8   ar
    37     8     9   ar
    38     9    10   ar
    39    10     2   ar
    40    18    13   ar
    41    10     5   ar
    42    29    24   ar
    43    34    30   ar
    44    41    36   ar
    45    11    12    1
    46    34    35    1
@<TRIPOS>MOLECULE
*****
 41 46 0 0 0
SMALL
GASTEIGER

@<TRIPOS>ATOM
      1 C          63.1257   87.4928   12.3153 C.3     1  UNL1        0.1332
      2 N          62.3633   88.5604   11.5880 N.ar    1  UNL1       -0.2975
      3 C          62.2900   90.0085   11.9721 C.ar    1  UNL1        0.2017
      4 N          61.4218   90.7104   10.9703 N.ar    1  UNL1       -0.2134
      5 C          60.9585   89.6960    9.9670 C.ar    1  UNL1        0.1030
      6 C          60.0820   89.8107    8.7552 C.ar    1  UNL1        0.0581
      7 C          59.7874   88.5966    7.9252 C.ar    1  UNL1        0.1469
      8 C          60.3693   87.2678    8.3069 C.ar    1  UNL1        0.0391
      9 C          61.2458   87.1531    9.5188 C.ar    1  UNL1        0.0219
     10 C          61.5404   88.3672   10.3488 C.ar    1  UNL1        0.0801
     11 N          62.9662   90.6433   13.1510 N.pl3   1  UNL1       -0.2839
     12 H          62.5537   90.5889   14.0432 H       1  UNL1        0.1550
     13 C          64.2709   91.3610   12.9705 C.ar    1  UNL1        0.0501
     14 C          64.6134   91.9724   11.6441 C.ar    1  UNL1        0.0147
     15 C          65.9180   92.6901   11.4636 C.ar    1  UNL1        0.0009
     16 C          66.8803   92.7966   12.6093 C.ar    1  UNL1       -0.0042
     17 C          66.5379   92.1852   13.9356 C.ar    1  UNL1       -0.0216
     18 C          65.2332   91.4675   14.1162 C.ar    1  UNL1        0.0104
     19 C          67.5002   92.2916   15.0813 C.3     1  UNL1        0.0190
     20 C          68.6326   91.9388   14.1631 C.3     1  UNL1        0.0044
     21 C          66.3678   92.6445   15.9996 C.3     1  UNL1        0.0044
     22 C          68.4625   92.3981   16.2271 C.3     1  UNL1        0.0044
     23 O          58.9108   88.7112    6.7133 O.3     1  UNL1       -0.4533
     24 C          58.9635   89.9462    5.8637 C.ar    1  UNL1        0.1485
     25 C          57.7555   90.8276    5.7458 C.ar    1  UNL1        0.0582
     26 C          57.8082   92.0627    4.8962 C.ar    1  UNL1        0.1021
     27 N          59.0690   92.4163    4.1644 N.ar    1  UNL1       -0.2406
     28 C          60.2770   91.5349    4.2823 C.ar    1  UNL1        0.1181
     29 C          60.2242   90.2999    5.1319 C.ar    1  UNL1        0.0597
     30 C          61.5378   91.8885    3.5505 C.ar    1  UNL1        0.1585
     31 N          62.8520   91.1743    3.6623 N.ar    1  UNL1       -0.2239
     32 C          63.8321   91.8628    2.7593 C.ar    1  UNL1        0.1175
     33 C          63.1235   93.0027    2.0894 C.ar    1  UNL1        0.0771
     34 N          61.7055   93.0186    2.5784 N.ar    1  UNL1       -0.3361
     35 H          61.0075   93.6584    2.3088 H       1  UNL1        0.1675
     36 C          63.7270   93.9588    1.1037 C.ar    1  UNL1        0.0172
     37 C          64.4857   95.1579    1.5900 C.ar    1  UNL1        0.0015
     38 C          65.0892   96.1140    0.6043 C.ar    1  UNL1        0.0000
     39 C          64.9340   95.8710   -0.8677 C.ar    1  UNL1        0.0000
     40 C          64.1753   94.6719   -1.3541 C.ar    1  UNL1        0.0000
     41 C          63.5718   93.7158   -0.3683 C.ar    1  UNL1        0.0015
@<TRIPOS>BOND
     1     1     2    1
     2     2     3   ar
     3     3    11    1
     4    11    13    1
     5    13    14   ar
     6    14    15   ar
     7    15    16   ar
     8    16    17   ar
     9    17    19    1
    10    19    20    1
    11    19    21    1
    12    19    22    1
    13    17    18   ar
    14     3     4   ar
    15     4     5   ar
    16     5     6   ar
    17     6     7   ar
    18     7    23    1
    19    23    24    1
    20    24    25   ar
    21    25    26   ar
    22    26    27   ar
    23    27    28   ar
    24    28    30    1
    25    30    31   ar
    26    31    32   ar
    27    32    33   ar
    28    33    36    1
    29    36    37   ar
    30    37    38   ar
    31    38    39   ar
    32    39    40   ar
    33    40    41   ar
    34    33    34   ar
    35    28    29   ar
    36     7     8   ar
    37     8     9   ar
    38     9    10   ar
    39    10     2   ar
    40    18    13   ar
    41    10     5   ar
    42    29    24   ar
    43    34    30   ar
    44    41    36   ar
    45    11    12    1
    46    34    35    1
@<TRIPOS>MOLECULE
*****
 41 46 0 0 0
SMALL
GASTEIGER

@<TRIPOS>ATOM
      1 C          63.0621   89.5304   12.6994 C.3     1  UNL1        0.1332
      2 N          62.4739   88.5162   11.7637 N.ar    1  UNL1       -0.2975
      3 C          62.6549   87.0295   11.8478 C.ar    1  UNL1        0.2017
      4 N          61.8943   86.4053   10.7157 N.ar    1  UNL1       -0.2134
      5 C          61.2432   87.5060    9.9319 C.ar    1  UNL1        0.1030
      6 C          60.3705   87.4890    8.7121 C.ar    1  UNL1        0.0581
      7 C          59.8560   88.7765    8.1400 C.ar    1  UNL1        0.1469
      8 C          60.2142   90.0812    8.7877 C.ar    1  UNL1        0.0391
      9 C          61.0869   90.0983   10.0075 C.ar    1  UNL1        0.0219
     10 C          61.6014   88.8107   10.5796 C.ar    1  UNL1        0.0801
     11 N          63.4558   86.2960   12.8824 N.pl3   1  UNL1       -0.2839
     12 H          64.1868   86.7552   13.3559 H       1  UNL1        0.1550
     13 C          63.1432   84.8628   13.1957 C.ar    1  UNL1        0.0501
     14 C          62.7106   84.4745   14.5785 C.ar    1  UNL1        0.0147
     15 C          62.3980   83.0413   14.8918 C.ar    1  UNL1        0.0009
     16 C          62.5179   81.9964   13.8223 C.ar    1  UNL1       -0.0042
     17 C          62.9504   82.3847   12.4396 C.ar    1  UNL1       -0.0216
     18 C          63.2631   83.8179   12.1262 C.ar    1  UNL1        0.0104
     19 C          63.0703   81.3398   11.3701 C.3     1  UNL1        0.0190
     20 C          62.5668   80.3013   12.3282 C.3     1  UNL1        0.0044
     21 C          63.5739   82.3782   10.4119 C.3     1  UNL1        0.0044
     22 C          63.1903   80.2949   10.3006 C.3     1  UNL1        0.0044
     23 O          58.9832   88.7595    6.9201 O.3     1  UNL1       -0.4533
     24 C          58.9765   89.9334    5.9863 C.ar    1  UNL1        0.1485
     25 C          57.7270   90.7444    5.8100 C.ar    1  UNL1        0.0582
     26 C          57.7203   91.9183    4.8762 C.ar    1  UNL1        0.1021
     27 N          58.9632   92.2810    4.1186 N.ar    1  UNL1       -0.2406
     28 C          60.2126   91.4700    4.2949 C.ar    1  UNL1        0.1181
     29 C          60.2192   90.2961    5.2287 C.ar    1  UNL1        0.0597
     30 C          61.4554   91.8327    3.5373 C.ar    1  UNL1        0.1585
     31 N          62.8247   91.2645    3.7657 N.ar    1  UNL1       -0.2239
     32 C          63.7626   91.9080    2.7878 C.ar    1  UNL1        0.1175
     33 C          62.9730   92.8740    1.9551 C.ar    1  UNL1        0.0771
     34 N          61.5470   92.8275    2.4183 N.ar    1  UNL1       -0.3361
     35 H          60.8020   93.3569    2.0522 H       1  UNL1        0.1675
     36 C          63.5143   93.7353    0.8527 C.ar    1  UNL1        0.0172
     37 C          64.7703   94.5268    1.0674 C.ar    1  UNL1        0.0015
     38 C          65.3116   95.3880   -0.0350 C.ar    1  UNL1        0.0000
     39 C          64.5969   95.4578   -1.3519 C.ar    1  UNL1        0.0000
     40 C          63.3409   94.6664   -1.5666 C.ar    1  UNL1        0.0000
     41 C          62.7996   93.8051   -0.4642 C.ar    1  UNL1        0.0015
@<TRIPOS>BOND
     1     1     2    1
     2     2     3   ar
     3     3    11    1
     4    11    13    1
     5    13    14   ar
     6    14    15   ar
     7    15    16   ar
     8    16    17   ar
     9    17    19    1
    10    19    20    1
    11    19    21    1
    12    19    22    1
    13    17    18   ar
    14     3     4   ar
    15     4     5   ar
    16     5     6   ar
    17     6     7   ar
    18     7    23    1
    19    23    24    1
    20    24    25   ar
    21    25    26   ar
    22    26    27   ar
    23    27    28   ar
    24    28    30    1
    25    30    31   ar
    26    31    32   ar
    27    32    33   ar
    28    33    36    1
    29    36    37   ar
    30    37    38   ar
    31    38    39   ar
    32    39    40   ar
    33    40    41   ar
    34    33    34   ar
    35    28    29   ar
    36     7     8   ar
    37     8     9   ar
    38     9    10   ar
    39    10     2   ar
    40    18    13   ar
    41    10     5   ar
    42    29    24   ar
    43    34    30   ar
    44    41    36   ar
    45    11    12    1
    46    34    35    1
@<TRIPOS>MOLECULE
*****
 41 46 0 0 0
SMALL
GASTEIGER

@<TRIPOS>ATOM
      1 C          63.1795   92.9791    1.5732 C.3     1  UNL1        0.1332
      2 N          61.7548   93.0041    2.0418 N.ar    1  UNL1       -0.2975
      3 C          60.6503   93.8370    1.4617 C.ar    1  UNL1        0.2017
      4 N          59.3974   93.5481    2.2341 N.ar    1  UNL1       -0.2134
      5 C          59.7274   92.5368    3.2915 C.ar    1  UNL1        0.1030
      6 C          58.8895   91.8786    4.3473 C.ar    1  UNL1        0.0581
      7 C          59.5086   90.8842    5.2842 C.ar    1  UNL1        0.1469
      8 C          60.9656   90.5480    5.1653 C.ar    1  UNL1        0.0391
      9 C          61.8035   91.2061    4.1096 C.ar    1  UNL1        0.0219
     10 C          61.1844   92.2005    3.1727 C.ar    1  UNL1        0.0801
     11 N          60.7767   94.7911    0.3112 N.pl3   1  UNL1       -0.2839
     12 H          61.1819   95.6777    0.4491 H       1  UNL1        0.1550
     13 C          60.2856   94.3945   -1.0495 C.ar    1  UNL1        0.0501
     14 C          61.0510   94.8056   -2.2724 C.ar    1  UNL1        0.0147
     15 C          60.5599   94.4090   -3.6331 C.ar    1  UNL1        0.0009
     16 C          59.3035   93.6013   -3.7710 C.ar    1  UNL1       -0.0042
     17 C          58.5381   93.1903   -2.5482 C.ar    1  UNL1       -0.0216
     18 C          59.0291   93.5869   -1.1875 C.ar    1  UNL1        0.0104
     19 C          57.2816   92.3826   -2.6862 C.3     1  UNL1        0.0190
     20 C          57.5082   92.2828   -4.1656 C.3     1  UNL1        0.0044
     21 C          57.0550   92.4825   -1.2067 C.3     1  UNL1        0.0044
     22 C          56.0252   91.5750   -2.8241 C.3     1  UNL1        0.0044
     23 O          58.6707   90.2260    6.3400 O.3     1  UNL1       -0.4533
     24 C          59.2932   89.2432    7.2869 C.ar    1  UNL1        0.1485
     25 C          58.9811   87.7812    7.1629 C.ar    1  UNL1        0.0582
     26 C          59.6037   86.7985    8.1098 C.ar    1  UNL1        0.1021
     27 N          60.5383   87.2777    9.1807 N.ar    1  UNL1       -0.2406
     28 C          60.8504   88.7396    9.3047 C.ar    1  UNL1        0.1181
     29 C          60.2279   89.7223    8.3578 C.ar    1  UNL1        0.0597
     30 C          61.7851   89.2188   10.3756 C.ar    1  UNL1        0.1585
     31 N          61.9861   88.5834   11.7194 N.ar    1  UNL1       -0.2239
     32 C          63.0081   89.3894   12.4651 C.ar    1  UNL1        0.1175
     33 C          63.4387   90.5230   11.5820 C.ar    1  UNL1        0.0771
     34 N          62.6827   90.4175   10.2906 N.ar    1  UNL1       -0.3361
     35 H          62.7619   91.0279    9.5222 H       1  UNL1        0.1675
     36 C          64.4479   91.5770   11.9294 C.ar    1  UNL1        0.0172
     37 C          65.0167   91.6427   13.3158 C.ar    1  UNL1        0.0015
     38 C          66.0259   92.6967   13.6631 C.ar    1  UNL1        0.0000
     39 C          66.4663   93.6849   12.6240 C.ar    1  UNL1        0.0000
     40 C          65.8974   93.6191   11.2377 C.ar    1  UNL1        0.0000
     41 C          64.8882   92.5652   10.8903 C.ar    1  UNL1        0.0015
@<TRIPOS>BOND
     1     1     2    1
     2     2     3   ar
     3     3    11    1
     4    11    13    1
     5    13    14   ar
     6    14    15   ar
     7    15    16   ar
     8    16    17   ar
     9    17    19    1
    10    19    20    1
    11    19    21    1
    12    19    22    1
    13    17    18   ar
    14     3     4   ar
    15     4     5   ar
    16     5     6   ar
    17     6     7   ar
    18     7    23    1
    19    23    24    1
    20    24    25   ar
    21    25    26   ar
    22    26    27   ar
    23    27    28   ar
    24    28    30    1
    25    30    31   ar
    26    31    32   ar
    27    32    33   ar
    28    33    36    1
    29    36    37   ar
    30    37    38   ar
    31    38    39   ar
    32    39    40   ar
    33    40    41   ar
    34    33    34   ar
    35    28    29   ar
    36     7     8   ar
    37     8     9   ar
    38     9    10   ar
    39    10     2   ar
    40    18    13   ar
    41    10     5   ar
    42    29    24   ar
    43    34    30   ar
    44    41    36   ar
    45    11    12    1
    46    34    35    1
@<TRIPOS>MOLECULE
*****
 41 46 0 0 0
SMALL
GASTEIGER

@<TRIPOS>ATOM
      1 C          62.4024   86.0074   18.1783 C.3     1  UNL1        0.1332
      2 N          63.1680   86.4014   16.9500 N.ar    1  UNL1       -0.2975
      3 C          63.7336   85.4636   15.9250 C.ar    1  UNL1        0.2017
      4 N          64.4175   86.2851   14.8726 N.ar    1  UNL1       -0.2134
      5 C          64.2746   87.7305   15.2473 C.ar    1  UNL1        0.1030
      6 C          64.7480   88.9905   14.5852 C.ar    1  UNL1        0.0581
      7 C          64.4490   90.3223   15.2071 C.ar    1  UNL1        0.1469
      8 C          63.6768   90.3942   16.4910 C.ar    1  UNL1        0.0391
      9 C          63.2035   89.1343   17.1530 C.ar    1  UNL1        0.0219
     10 C          63.5024   87.8024   16.5312 C.ar    1  UNL1        0.0801
     11 N          63.6329   83.9672   15.9482 N.pl3   1  UNL1       -0.2839
     12 H          63.8729   83.4703   16.7635 H       1  UNL1        0.1550
     13 C          63.1664   83.2279   14.7293 C.ar    1  UNL1        0.0501
     14 C          62.2999   82.0122   14.8753 C.ar    1  UNL1        0.0147
     15 C          61.8334   81.2729   13.6563 C.ar    1  UNL1        0.0009
     16 C          62.2335   81.7492   12.2914 C.ar    1  UNL1       -0.0042
     17 C          63.1000   82.9648   12.1454 C.ar    1  UNL1       -0.0216
     18 C          63.5665   83.7042   13.3643 C.ar    1  UNL1        0.0104
     19 C          63.5001   83.4411   10.7804 C.3     1  UNL1        0.0190
     20 C          64.1770   82.1279   10.5206 C.3     1  UNL1        0.0044
     21 C          62.8233   84.7542   11.0403 C.3     1  UNL1        0.0044
     22 C          63.9002   83.9174    9.4155 C.3     1  UNL1        0.0044
     23 O          64.9224   91.5824   14.5450 O.3     1  UNL1       -0.4533
     24 C          64.6287   91.8230   13.0938 C.ar    1  UNL1        0.1485
     25 C          65.3994   92.8625   12.3350 C.ar    1  UNL1        0.0582
     26 C          65.1058   93.1031   10.8838 C.ar    1  UNL1        0.1021
     27 N          64.0415   92.3043   10.1915 N.ar    1  UNL1       -0.2406
     28 C          63.2709   91.2649   10.9503 C.ar    1  UNL1        0.1181
     29 C          63.5645   91.0243   12.4015 C.ar    1  UNL1        0.0597
     30 C          62.2066   90.4661   10.2579 C.ar    1  UNL1        0.1585
     31 N          60.7736   90.8727   10.0814 N.ar    1  UNL1       -0.2239
     32 C          60.0699   89.7784    9.3349 C.ar    1  UNL1        0.1175
     33 C          61.0680   88.6954    9.0502 C.ar    1  UNL1        0.0771
     34 N          62.3886   89.1205    9.6207 N.ar    1  UNL1       -0.3361
     35 H          63.2275   88.6065    9.5834 H       1  UNL1        0.1675
     36 C          60.7936   87.4126    8.3227 C.ar    1  UNL1        0.0172
     37 C          61.9085   86.4421    8.0673 C.ar    1  UNL1        0.0015
     38 C          61.6341   85.1593    7.3399 C.ar    1  UNL1        0.0000
     39 C          60.2450   84.8471    6.8678 C.ar    1  UNL1        0.0000
     40 C          59.1302   85.8176    7.1232 C.ar    1  UNL1        0.0000
     41 C          59.4045   87.1004    7.8507 C.ar    1  UNL1        0.0015
@<TRIPOS>BOND
     1     1     2    1
     2     2     3   ar
     3     3    11    1
     4    11    13    1
     5    13    14   ar
     6    14    15   ar
     7    15    16   ar
     8    16    17   ar
     9    17    19    1
    10    19    20    1
    11    19    21    1
    12    19    22    1
    13    17    18   ar
    14     3     4   ar
    15     4     5   ar
    16     5     6   ar
    17     6     7   ar
    18     7    23    1
    19    23    24    1
    20    24    25   ar
    21    25    26   ar
    22    26    27   ar
    23    27    28   ar
    24    28    30    1
    25    30    31   ar
    26    31    32   ar
    27    32    33   ar
    28    33    36    1
    29    36    37   ar
    30    37    38   ar
    31    38    39   ar
    32    39    40   ar
    33    40    41   ar
    34    33    34   ar
    35    28    29   ar
    36     7     8   ar
    37     8     9   ar
    38     9    10   ar
    39    10     2   ar
    40    18    13   ar
    41    10     5   ar
    42    29    24   ar
    43    34    30   ar
    44    41    36   ar
    45    11    12    1
    46    34    35    1
@<TRIPOS>MOLECULE
*****
 41 46 0 0 0
SMALL
GASTEIGER

@<TRIPOS>ATOM
      1 C          63.2669   93.1013    1.6280 C.3     1  UNL1        0.1332
      2 N          61.8530   93.1542    2.1260 N.ar    1  UNL1       -0.2975
      3 C          60.7790   94.0786    1.6341 C.ar    1  UNL1        0.2017
      4 N          59.5271   93.7876    2.4075 N.ar    1  UNL1       -0.2134
      5 C          59.8274   92.6833    3.3773 C.ar    1  UNL1        0.1030
      6 C          58.9776   91.9838    4.3963 C.ar    1  UNL1        0.0581
      7 C          59.5654   90.8927    5.2413 C.ar    1  UNL1        0.1469
      8 C          61.0029   90.5013    5.0673 C.ar    1  UNL1        0.0391
      9 C          61.8527   91.2008    4.0483 C.ar    1  UNL1        0.0219
     10 C          61.2649   92.2919    3.2033 C.ar    1  UNL1        0.0801
     11 N          60.9302   95.1124    0.5579 N.pl3   1  UNL1       -0.2839
     12 H          60.1590   95.6642    0.2935 H       1  UNL1        0.1550
     13 C          62.2566   95.3055   -0.1155 C.ar    1  UNL1        0.0501
     14 C          63.3023   96.1718    0.5218 C.ar    1  UNL1        0.0147
     15 C          64.6286   96.3649   -0.1516 C.ar    1  UNL1        0.0009
     16 C          64.9093   95.6917   -1.4623 C.ar    1  UNL1       -0.0042
     17 C          63.8637   94.8255   -2.0996 C.ar    1  UNL1       -0.0216
     18 C          62.5373   94.6323   -1.4262 C.ar    1  UNL1        0.0104
     19 C          64.1444   94.1523   -3.4104 C.3     1  UNL1        0.0190
     20 C          64.9084   95.3598   -3.8669 C.3     1  UNL1        0.0044
     21 C          63.3805   92.9448   -2.9539 C.3     1  UNL1        0.0044
     22 C          64.4252   93.4791   -4.7211 C.3     1  UNL1        0.0044
     23 O          58.7156   90.1931    6.2604 O.3     1  UNL1       -0.4533
     24 C          59.3387   89.2172    7.2140 C.ar    1  UNL1        0.1485
     25 C          59.0555   87.7504    7.0778 C.ar    1  UNL1        0.0582
     26 C          59.6787   86.7746    8.0314 C.ar    1  UNL1        0.1021
     27 N          60.5851   87.2654    9.1212 N.ar    1  UNL1       -0.2406
     28 C          60.8682   88.7321    9.2573 C.ar    1  UNL1        0.1181
     29 C          60.2451   89.7080    8.3037 C.ar    1  UNL1        0.0597
     30 C          61.7746   89.2230   10.3471 C.ar    1  UNL1        0.1585
     31 N          61.9160   88.6217   11.7140 N.ar    1  UNL1       -0.2239
     32 C          62.9274   89.4284   12.4730 C.ar    1  UNL1        0.1175
     33 C          63.4112   90.5285   11.5752 C.ar    1  UNL1        0.0771
     34 N          62.6986   90.4015   10.2613 N.ar    1  UNL1       -0.3361
     35 H          62.8167   90.9885    9.4798 H       1  UNL1        0.1675
     36 C          64.4287   91.5722   11.9291 C.ar    1  UNL1        0.0172
     37 C          64.8605   92.5771   10.9026 C.ar    1  UNL1        0.0015
     38 C          65.8780   93.6208   11.2566 C.ar    1  UNL1        0.0000
     39 C          66.4638   93.6595   12.6369 C.ar    1  UNL1        0.0000
     40 C          66.0321   92.6546   13.6634 C.ar    1  UNL1        0.0000
     41 C          65.0145   91.6109   13.3095 C.ar    1  UNL1        0.0015
@<TRIPOS>BOND
     1     1     2    1
     2     2     3   ar
     3     3    11    1
     4    11    13    1
     5    13    14   ar
     6    14    15   ar
     7    15    16   ar
     8    16    17   ar
     9    17    19    1
    10    19    20    1
    11    19    21    1
    12    19    22    1
    13    17    18   ar
    14     3     4   ar
    15     4     5   ar
    16     5     6   ar
    17     6     7   ar
    18     7    23    1
    19    23    24    1
    20    24    25   ar
    21    25    26   ar
    22    26    27   ar
    23    27    28   ar
    24    28    30    1
    25    30    31   ar
    26    31    32   ar
    27    32    33   ar
    28    33    36    1
    29    36    37   ar
    30    37    38   ar
    31    38    39   ar
    32    39    40   ar
    33    40    41   ar
    34    33    34   ar
    35    28    29   ar
    36     7     8   ar
    37     8     9   ar
    38     9    10   ar
    39    10     2   ar
    40    18    13   ar
    41    10     5   ar
    42    29    24   ar
    43    34    30   ar
    44    41    36   ar
    45    11    12    1
    46    34    35    1
@<TRIPOS>MOLECULE
*****
 41 46 0 0 0
SMALL
GASTEIGER

@<TRIPOS>ATOM
      1 C          63.1479   83.7696   15.1325 C.3     1  UNL1        0.1332
      2 N          63.2558   85.1008   14.4496 N.ar    1  UNL1       -0.2975
      3 C          63.3037   85.3304   12.9680 C.ar    1  UNL1        0.2017
      4 N          63.4122   86.8076   12.7312 N.ar    1  UNL1       -0.2134
      5 C          63.4314   87.4910   14.0663 C.ar    1  UNL1        0.1030
      6 C          63.5244   88.9374   14.4522 C.ar    1  UNL1        0.0581
      7 C          63.5207   89.3291   15.9002 C.ar    1  UNL1        0.1469
      8 C          63.4240   88.2742   16.9622 C.ar    1  UNL1        0.0391
      9 C          63.3310   86.8277   16.5763 C.ar    1  UNL1        0.0219
     10 C          63.3347   86.4361   15.1284 C.ar    1  UNL1        0.0801
     11 N          63.2521   84.2691   11.9092 N.pl3   1  UNL1       -0.2839
     12 H          63.4367   83.3308   12.1433 H       1  UNL1        0.1550
     13 C          62.9194   84.6374   10.4938 C.ar    1  UNL1        0.0501
     14 C          63.6256   83.9602    9.3567 C.ar    1  UNL1        0.0147
     15 C          63.2929   84.3285    7.9413 C.ar    1  UNL1        0.0009
     16 C          62.2539   85.3739    7.6627 C.ar    1  UNL1       -0.0042
     17 C          61.5477   86.0511    8.7996 C.ar    1  UNL1       -0.0216
     18 C          61.8804   85.6828   10.2152 C.ar    1  UNL1        0.0104
     19 C          60.5087   87.0965    8.5211 C.3     1  UNL1        0.0190
     20 C          61.1950   88.0319    9.4719 C.3     1  UNL1        0.0044
     21 C          59.8224   86.1612    7.5703 C.3     1  UNL1        0.0044
     22 C          59.4698   88.1420    8.2425 C.3     1  UNL1        0.0044
     23 O          63.6137   90.7756   16.2861 O.3     1  UNL1       -0.4533
     24 C          64.8152   91.5817   15.8902 C.ar    1  UNL1        0.1485
     25 C          65.7517   92.0981   16.9421 C.ar    1  UNL1        0.0582
     26 C          66.9532   92.9042   16.5462 C.ar    1  UNL1        0.1021
     27 N          67.2181   93.1939   15.0985 N.ar    1  UNL1       -0.2406
     28 C          66.2816   92.6775   14.0467 C.ar    1  UNL1        0.1181
     29 C          65.0802   91.8714   14.4426 C.ar    1  UNL1        0.0597
     30 C          66.5466   92.9672   12.5989 C.ar    1  UNL1        0.1585
     31 N          67.4184   92.1598   11.6834 N.ar    1  UNL1       -0.2239
     32 C          67.3968   92.8088   10.3312 C.ar    1  UNL1        0.1175
     33 C          66.5117   94.0172   10.4110 C.ar    1  UNL1        0.0771
     34 N          65.9862   94.1151   11.8126 N.ar    1  UNL1       -0.3361
     35 H          65.3800   94.8106   12.1561 H       1  UNL1        0.1675
     36 C          66.2058   94.9618    9.2867 C.ar    1  UNL1        0.0172
     37 C          67.0579   94.9594    8.0523 C.ar    1  UNL1        0.0015
     38 C          66.7520   95.9041    6.9280 C.ar    1  UNL1        0.0000
     39 C          65.5940   96.8511    7.0381 C.ar    1  UNL1        0.0000
     40 C          64.7419   96.8535    8.2726 C.ar    1  UNL1        0.0000
     41 C          65.0478   95.9089    9.3969 C.ar    1  UNL1        0.0015
@<TRIPOS>BOND
     1     1     2    1
     2     2     3   ar
     3     3    11    1
     4    11    13    1
     5    13    14   ar
     6    14    15   ar
     7    15    16   ar
     8    16    17   ar
     9    17    19    1
    10    19    20    1
    11    19    21    1
    12    19    22    1
    13    17    18   ar
    14     3     4   ar
    15     4     5   ar
    16     5     6   ar
    17     6     7   ar
    18     7    23    1
    19    23    24    1
    20    24    25   ar
    21    25    26   ar
    22    26    27   ar
    23    27    28   ar
    24    28    30    1
    25    30    31   ar
    26    31    32   ar
    27    32    33   ar
    28    33    36    1
    29    36    37   ar
    30    37    38   ar
    31    38    39   ar
    32    39    40   ar
    33    40    41   ar
    34    33    34   ar
    35    28    29   ar
    36     7     8   ar
    37     8     9   ar
    38     9    10   ar
    39    10     2   ar
    40    18    13   ar
    41    10     5   ar
    42    29    24   ar
    43    34    30   ar
    44    41    36   ar
    45    11    12    1
    46    34    35    1
