@<TRIPOS>MOLECULE
*****
 21 24 0 0 0
SMALL
GASTEIGER

@<TRIPOS>ATOM
      1 C          62.9002   86.0230   12.3442 C.3     1  UNL1        0.1518
      2 N          62.8819   87.4837   12.0032 N.ar    1  UNL1       -0.2662
      3 C          63.4842   88.5875   12.8210 C.ar    1  UNL1        0.0541
      4 C          63.2327   89.8830   12.1078 C.ar    1  UNL1        0.0484
      5 C          62.4750   89.5797   10.8492 C.ar    1  UNL1        0.2759
      6 O          62.0149   90.5832    9.8337 O.2     1  UNL1       -0.2655
      7 N          62.2582   88.0969   10.7846 N.ar    1  UNL1       -0.2148
      8 C          63.8350   90.9868   12.9256 C.3     1  UNL1        0.0286
      9 C          64.5927   91.2901   14.1841 C.3     1  UNL1        0.0049
     10 C          64.8442   89.9947   14.8973 C.3     1  UNL1        0.0059
     11 C          64.2419   88.8908   14.0795 C.3     1  UNL1        0.0352
     12 C          64.2602   87.4302   14.4205 C.3     1  UNL1        0.0059
     13 C          63.6182   89.5040   12.8609 C.3     1  UNL1        0.0088
     14 C          63.1050   88.2426   12.2319 C.3     1  UNL1        0.0007
     15 C          62.8688   89.4589   11.5623 C.3     1  UNL1        0.0007
     16 C          61.5432   87.3571    9.6931 C.ar    1  UNL1        0.0841
     17 C          60.0917   87.6283    9.4295 C.ar    1  UNL1        0.0192
     18 C          59.3766   86.8886    8.3380 C.ar    1  UNL1        0.0015
     19 C          60.1130   85.8775    7.5101 C.ar    1  UNL1        0.0001
     20 C          61.5646   85.6062    7.7737 C.ar    1  UNL1        0.0015
     21 C          62.2797   86.3460    8.8652 C.ar    1  UNL1        0.0192
@<TRIPOS>BOND
     1     1     2    1
     2     2     3   ar
     3     3     4   ar
     4     4     5   ar
     5     5     6    2
     6     5     7   ar
     7     7    16    1
     8    16    17   ar
     9    17    18   ar
    10    18    19   ar
    11    19    20   ar
    12    20    21   ar
    13     4     8    1
    14     8     9    1
    15     9    10    1
    16    10    11    1
    17    11    12    1
    18    11    13    1
    19    13    14    1
    20    13    15    1
    21     7     2   ar
    22    21    16   ar
    23    13     8    1
    24    11     3    1
@<TRIPOS>MOLECULE
*****
 21 24 0 0 0
SMALL
GASTEIGER

@<TRIPOS>ATOM
      1 C          62.8841   89.5085   11.9718 C.3     1  UNL1        0.1518
      2 N          63.8977   90.3729   12.6614 N.ar    1  UNL1       -0.2662
      3 C          64.5555   91.5915   12.0849 C.ar    1  UNL1        0.0541
      4 C          65.4957   92.1422   13.1159 C.ar    1  UNL1        0.0484
      5 C          65.4189   91.2639   14.3294 C.ar    1  UNL1        0.2759
      6 O          66.1938   91.4471   15.6007 O.2     1  UNL1       -0.2655
      7 N          64.4314   90.1705   14.0486 N.ar    1  UNL1       -0.2148
      8 C          66.1535   93.3608   12.5393 C.3     1  UNL1        0.0286
      9 C          66.2303   94.2390   11.3257 C.3     1  UNL1        0.0049
     10 C          65.2901   93.6883   10.2949 C.3     1  UNL1        0.0059
     11 C          64.6322   92.4697   10.8713 C.3     1  UNL1        0.0352
     12 C          63.6187   91.6053   10.1817 C.3     1  UNL1        0.0059
     13 C          65.1659   92.2673   12.2585 C.3     1  UNL1        0.0088
     14 C          64.3835   91.0354   12.6055 C.3     1  UNL1        0.0007
     15 C          65.2663   91.5525   13.5734 C.3     1  UNL1        0.0007
     16 C          64.0451   89.0681   14.9896 C.ar    1  UNL1        0.0841
     17 C          64.4086   87.6482   14.6708 C.ar    1  UNL1        0.0192
     18 C          64.0224   86.5457   15.6117 C.ar    1  UNL1        0.0015
     19 C          63.2727   86.8631   16.8715 C.ar    1  UNL1        0.0001
     20 C          62.9092   88.2831   17.1904 C.ar    1  UNL1        0.0015
     21 C          63.2954   89.3856   16.2494 C.ar    1  UNL1        0.0192
@<TRIPOS>BOND
     1     1     2    1
     2     2     3   ar
     3     3     4   ar
     4     4     5   ar
     5     5     6    2
     6     5     7   ar
     7     7    16    1
     8    16    17   ar
     9    17    18   ar
    10    18    19   ar
    11    19    20   ar
    12    20    21   ar
    13     4     8    1
    14     8     9    1
    15     9    10    1
    16    10    11    1
    17    11    12    1
    18    11    13    1
    19    13    14    1
    20    13    15    1
    21     7     2   ar
    22    21    16   ar
    23    13     8    1
    24    11     3    1
@<TRIPOS>MOLECULE
*****
 21 24 0 0 0
SMALL
GASTEIGER

@<TRIPOS>ATOM
      1 C          64.2600   91.9841   10.4604 C.3     1  UNL1        0.1518
      2 N          64.2700   91.4777   11.8723 N.ar    1  UNL1       -0.2662
      3 C          65.1462   91.9779   12.9822 C.ar    1  UNL1        0.0541
      4 C          64.8232   91.1915   14.2180 C.ar    1  UNL1        0.0484
      5 C          63.7473   90.2053   13.8718 C.ar    1  UNL1        0.2759
      6 O          63.1230   89.2159   14.8107 O.2     1  UNL1       -0.2655
      7 N          63.4054   90.3821   12.4222 N.ar    1  UNL1       -0.2148
      8 C          65.6995   91.6918   15.3280 C.3     1  UNL1        0.0286
      9 C          66.7754   92.6780   15.6742 C.3     1  UNL1        0.0049
     10 C          67.0983   93.4643   14.4383 C.3     1  UNL1        0.0059
     11 C          66.2221   92.9641   13.3284 C.3     1  UNL1        0.0352
     12 C          66.2122   93.4706   11.9165 C.3     1  UNL1        0.0059
     13 C          65.3575   91.8686   13.8782 C.3     1  UNL1        0.0088
     14 C          64.6030   91.5478   12.6221 C.3     1  UNL1        0.0007
     15 C          64.2997   90.8094   13.7824 C.3     1  UNL1        0.0007
     16 C          62.3791   89.6007   11.6565 C.ar    1  UNL1        0.0841
     17 C          61.1733   90.2945   11.0955 C.ar    1  UNL1        0.0192
     18 C          60.1470   89.5132   10.3299 C.ar    1  UNL1        0.0015
     19 C          60.3265   88.0382   10.1253 C.ar    1  UNL1        0.0001
     20 C          61.5323   87.3444   10.6863 C.ar    1  UNL1        0.0015
     21 C          62.5586   88.1256   11.4519 C.ar    1  UNL1        0.0192
@<TRIPOS>BOND
     1     1     2    1
     2     2     3   ar
     3     3     4   ar
     4     4     5   ar
     5     5     6    2
     6     5     7   ar
     7     7    16    1
     8    16    17   ar
     9    17    18   ar
    10    18    19   ar
    11    19    20   ar
    12    20    21   ar
    13     4     8    1
    14     8     9    1
    15     9    10    1
    16    10    11    1
    17    11    12    1
    18    11    13    1
    19    13    14    1
    20    13    15    1
    21     7     2   ar
    22    21    16   ar
    23    13     8    1
    24    11     3    1
@<TRIPOS>MOLECULE
*****
 21 24 0 0 0
SMALL
GASTEIGER

@<TRIPOS>ATOM
      1 C          63.5107   84.3535   10.0925 C.3     1  UNL1        0.1518
      2 N          63.1065   84.0785   11.5107 N.ar    1  UNL1       -0.2662
      3 C          62.8882   82.7247   12.1184 C.ar    1  UNL1        0.0541
      4 C          62.4964   82.9187   13.5534 C.ar    1  UNL1        0.0484
      5 C          62.4725   84.3923   13.8323 C.ar    1  UNL1        0.2759
      6 O          62.1315   85.0360   15.1436 O.2     1  UNL1       -0.2655
      7 N          62.8496   85.1091   12.5699 N.ar    1  UNL1       -0.2148
      8 C          62.2781   81.5648   14.1612 C.3     1  UNL1        0.0286
      9 C          62.3019   80.0911   13.8823 C.3     1  UNL1        0.0049
     10 C          62.6936   79.8973   12.4474 C.3     1  UNL1        0.0059
     11 C          62.9120   81.2511   11.8395 C.3     1  UNL1        0.0352
     12 C          63.3162   81.5260   10.4214 C.3     1  UNL1        0.0059
     13 C          62.6551   82.2817   12.8987 C.3     1  UNL1        0.0088
     14 C          62.9293   83.5032   12.0724 C.3     1  UNL1        0.0007
     15 C          62.5615   83.6852   13.4197 C.3     1  UNL1        0.0007
     16 C          62.9519   86.5956   12.3968 C.ar    1  UNL1        0.0841
     17 C          63.7197   87.4153   13.3912 C.ar    1  UNL1        0.0192
     18 C          63.8221   88.9017   13.2182 C.ar    1  UNL1        0.0015
     19 C          63.1566   89.5686   12.0510 C.ar    1  UNL1        0.0001
     20 C          62.3888   88.7489   11.0567 C.ar    1  UNL1        0.0015
     21 C          62.2864   87.2624   11.2296 C.ar    1  UNL1        0.0192
@<TRIPOS>BOND
     1     1     2    1
     2     2     3   ar
     3     3     4   ar
     4     4     5   ar
     5     5     6    2
     6     5     7   ar
     7     7    16    1
     8    16    17   ar
     9    17    18   ar
    10    18    19   ar
    11    19    20   ar
    12    20    21   ar
    13     4     8    1
    14     8     9    1
    15     9    10    1
    16    10    11    1
    17    11    12    1
    18    11    13    1
    19    13    14    1
    20    13    15    1
    21     7     2   ar
    22    21    16   ar
    23    13     8    1
    24    11     3    1
@<TRIPOS>MOLECULE
*****
 21 24 0 0 0
SMALL
GASTEIGER

@<TRIPOS>ATOM
      1 C          63.7936   91.8065   10.1096 C.3     1  UNL1        0.1518
      2 N          64.5249   91.9741   11.4085 N.ar    1  UNL1       -0.2662
      3 C          64.2430   91.2318   12.6810 C.ar    1  UNL1        0.0541
      4 C          65.2105   91.7123   13.7219 C.ar    1  UNL1        0.0484
      5 C          66.0902   92.7515   13.0925 C.ar    1  UNL1        0.2759
      6 O          67.1989   93.4978   13.7734 O.2     1  UNL1       -0.2655
      7 N          65.6665   92.9133   11.6628 N.ar    1  UNL1       -0.2148
      8 C          64.9286   90.9700   14.9945 C.3     1  UNL1        0.0286
      9 C          64.0489   89.9307   15.6239 C.3     1  UNL1        0.0049
     10 C          63.0815   89.4503   14.5831 C.3     1  UNL1        0.0059
     11 C          63.3633   90.1926   13.3105 C.3     1  UNL1        0.0352
     12 C          62.6320   90.0250   12.0116 C.3     1  UNL1        0.0059
     13 C          64.5049   91.1318   13.5647 C.3     1  UNL1        0.0088
     14 C          64.5899   91.7332   12.1932 C.3     1  UNL1        0.0007
     15 C          65.4983   92.1843   13.1704 C.3     1  UNL1        0.0007
     16 C          66.2771   93.8498   10.6628 C.ar    1  UNL1        0.0841
     17 C          65.9101   95.3042   10.6759 C.ar    1  UNL1        0.0192
     18 C          66.5206   96.2409    9.6759 C.ar    1  UNL1        0.0015
     19 C          67.4981   95.7231    8.6628 C.ar    1  UNL1        0.0001
     20 C          67.8651   94.2688    8.6497 C.ar    1  UNL1        0.0015
     21 C          67.2546   93.3321    9.6497 C.ar    1  UNL1        0.0192
@<TRIPOS>BOND
     1     1     2    1
     2     2     3   ar
     3     3     4   ar
     4     4     5   ar
     5     5     6    2
     6     5     7   ar
     7     7    16    1
     8    16    17   ar
     9    17    18   ar
    10    18    19   ar
    11    19    20   ar
    12    20    21   ar
    13     4     8    1
    14     8     9    1
    15     9    10    1
    16    10    11    1
    17    11    12    1
    18    11    13    1
    19    13    14    1
    20    13    15    1
    21     7     2   ar
    22    21    16   ar
    23    13     8    1
    24    11     3    1
@<TRIPOS>MOLECULE
*****
 21 24 0 0 0
SMALL
GASTEIGER

@<TRIPOS>ATOM
      1 C          64.2356   86.4420   14.4931 C.3     1  UNL1        0.1518
      2 N          63.5706   85.7397   13.3464 N.ar    1  UNL1       -0.2662
      3 C          63.3912   84.2573   13.2051 C.ar    1  UNL1        0.0541
      4 C          62.6780   83.9980   11.9111 C.ar    1  UNL1        0.0484
      5 C          62.4167   85.3203   11.2529 C.ar    1  UNL1        0.2759
      6 O          61.7251   85.5293    9.9383 O.2     1  UNL1       -0.2655
      7 N          62.9683   86.3967   12.1399 N.ar    1  UNL1       -0.2148
      8 C          62.4985   82.5155   11.7698 C.3     1  UNL1        0.0286
      9 C          62.7598   81.1932   12.4280 C.3     1  UNL1        0.0049
     10 C          63.4730   81.4525   13.7219 C.3     1  UNL1        0.0059
     11 C          63.6525   82.9350   13.8633 C.3     1  UNL1        0.0352
     12 C          64.3175   83.6372   15.0099 C.3     1  UNL1        0.0059
     13 C          63.0502   83.5920   12.6568 C.3     1  UNL1        0.0088
     14 C          63.3470   85.0156   13.0243 C.3     1  UNL1        0.0007
     15 C          62.6774   84.7723   11.8095 C.3     1  UNL1        0.0007
     16 C          62.9253   87.8713   11.8683 C.ar    1  UNL1        0.0841
     17 C          62.2836   88.3842   10.6132 C.ar    1  UNL1        0.0192
     18 C          62.2406   89.8588   10.3415 C.ar    1  UNL1        0.0015
     19 C          62.8392   90.8204   11.3248 C.ar    1  UNL1        0.0001
     20 C          63.4809   90.3074   12.5799 C.ar    1  UNL1        0.0015
     21 C          63.5239   88.8329   12.8516 C.ar    1  UNL1        0.0192
@<TRIPOS>BOND
     1     1     2    1
     2     2     3   ar
     3     3     4   ar
     4     4     5   ar
     5     5     6    2
     6     5     7   ar
     7     7    16    1
     8    16    17   ar
     9    17    18   ar
    10    18    19   ar
    11    19    20   ar
    12    20    21   ar
    13     4     8    1
    14     8     9    1
    15     9    10    1
    16    10    11    1
    17    11    12    1
    18    11    13    1
    19    13    14    1
    20    13    15    1
    21     7     2   ar
    22    21    16   ar
    23    13     8    1
    24    11     3    1
@<TRIPOS>MOLECULE
*****
 21 24 0 0 0
SMALL
GASTEIGER

@<TRIPOS>ATOM
      1 C          64.2111   86.4954   14.3366 C.3     1  UNL1        0.1518
      2 N          63.4494   86.7574   13.0711 N.ar    1  UNL1       -0.2662
      3 C          63.2100   88.1008   12.4483 C.ar    1  UNL1        0.0541
      4 C          62.4060   87.8955   11.1986 C.ar    1  UNL1        0.0484
      5 C          62.1486   86.4253   11.0493 C.ar    1  UNL1        0.2759
      6 O          61.3810   85.7732    9.9377 O.2     1  UNL1       -0.2655
      7 N          62.7934   85.7220   12.2065 N.ar    1  UNL1       -0.2148
      8 C          62.1665   89.2389   10.5758 C.3     1  UNL1        0.0286
      9 C          62.4239   90.7091   10.7251 C.3     1  UNL1        0.0049
     10 C          63.2279   90.9143   11.9747 C.3     1  UNL1        0.0059
     11 C          63.4674   89.5709   12.5976 C.3     1  UNL1        0.0352
     12 C          64.2291   89.3090   13.8630 C.3     1  UNL1        0.0059
     13 C          62.8114   88.5355   11.7330 C.3     1  UNL1        0.0088
     14 C          63.1805   87.3258   12.5395 C.3     1  UNL1        0.0007
     15 C          62.4256   87.1331   11.3662 C.3     1  UNL1        0.0007
     16 C          62.7840   84.2428   12.4556 C.ar    1  UNL1        0.0841
     17 C          63.2115   83.2972   11.3724 C.ar    1  UNL1        0.0192
     18 C          63.2022   81.8181   11.6213 C.ar    1  UNL1        0.0015
     19 C          62.7654   81.2845   12.9534 C.ar    1  UNL1        0.0001
     20 C          62.3379   82.2300   14.0365 C.ar    1  UNL1        0.0015
     21 C          62.3472   83.7092   13.7876 C.ar    1  UNL1        0.0192
@<TRIPOS>BOND
     1     1     2    1
     2     2     3   ar
     3     3     4   ar
     4     4     5   ar
     5     5     6    2
     6     5     7   ar
     7     7    16    1
     8    16    17   ar
     9    17    18   ar
    10    18    19   ar
    11    19    20   ar
    12    20    21   ar
    13     4     8    1
    14     8     9    1
    15     9    10    1
    16    10    11    1
    17    11    12    1
    18    11    13    1
    19    13    14    1
    20    13    15    1
    21     7     2   ar
    22    21    16   ar
    23    13     8    1
    24    11     3    1
@<TRIPOS>MOLECULE
*****
 21 24 0 0 0
SMALL
GASTEIGER

@<TRIPOS>ATOM
      1 C          62.3320   86.4075   11.1478 C.3     1  UNL1        0.1518
      2 N          63.0731   86.7290   12.4118 N.ar    1  UNL1       -0.2662
      3 C          63.4722   88.0985   12.8756 C.ar    1  UNL1        0.0541
      4 C          64.1910   87.9534   14.1843 C.ar    1  UNL1        0.0484
      5 C          64.2360   86.4942   14.5291 C.ar    1  UNL1        0.2759
      6 O          64.8620   85.8967   15.7543 O.2     1  UNL1       -0.2655
      7 N          63.5451   85.7376   13.4336 N.ar    1  UNL1       -0.2148
      8 C          64.5902   89.3229   14.6481 C.3     1  UNL1        0.0286
      9 C          64.5452   90.7820   14.3033 C.3     1  UNL1        0.0049
     10 C          63.8265   90.9271   12.9948 C.3     1  UNL1        0.0059
     11 C          63.4273   89.5576   12.5308 C.3     1  UNL1        0.0352
     12 C          62.6862   89.2361   11.2669 C.3     1  UNL1        0.0059
     13 C          63.8993   88.5661   13.5527 C.3     1  UNL1        0.0088
     14 C          63.3974   87.3212   12.8831 C.3     1  UNL1        0.0007
     15 C          64.0722   87.1850   14.1117 C.3     1  UNL1        0.0007
     16 C          63.3588   84.2505   13.3709 C.ar    1  UNL1        0.0841
     17 C          62.4987   83.5590   14.3869 C.ar    1  UNL1        0.0192
     18 C          62.3124   82.0719   14.3243 C.ar    1  UNL1        0.0015
     19 C          62.9861   81.2764   13.2458 C.ar    1  UNL1        0.0001
     20 C          63.8462   81.9679   12.2298 C.ar    1  UNL1        0.0015
     21 C          64.0325   83.4550   12.2924 C.ar    1  UNL1        0.0192
@<TRIPOS>BOND
     1     1     2    1
     2     2     3   ar
     3     3     4   ar
     4     4     5   ar
     5     5     6    2
     6     5     7   ar
     7     7    16    1
     8    16    17   ar
     9    17    18   ar
    10    18    19   ar
    11    19    20   ar
    12    20    21   ar
    13     4     8    1
    14     8     9    1
    15     9    10    1
    16    10    11    1
    17    11    12    1
    18    11    13    1
    19    13    14    1
    20    13    15    1
    21     7     2   ar
    22    21    16   ar
    23    13     8    1
    24    11     3    1
@<TRIPOS>MOLECULE
*****
 21 24 0 0 0
SMALL
GASTEIGER

@<TRIPOS>ATOM
      1 C          65.1860   92.7787   11.3555 C.3     1  UNL1        0.1518
      2 N          64.6241   91.5890   12.0760 N.ar    1  UNL1       -0.2662
      3 C          63.5272   90.6946   11.5793 C.ar    1  UNL1        0.0541
      4 C          63.2858   89.6377   12.6160 C.ar    1  UNL1        0.0484
      5 C          64.2335   89.8789   13.7533 C.ar    1  UNL1        0.2759
      6 O          64.3360   89.0582   15.0047 O.2     1  UNL1       -0.2655
      7 N          65.0606   91.0848   13.4196 N.ar    1  UNL1       -0.2148
      8 C          62.1888   88.7433   12.1193 C.3     1  UNL1        0.0286
      9 C          61.2410   88.5020   10.9819 C.3     1  UNL1        0.0049
     10 C          61.4825   89.5589    9.9453 C.3     1  UNL1        0.0059
     11 C          62.5794   90.4534   10.4419 C.3     1  UNL1        0.0352
     12 C          63.1412   91.6430    9.7214 C.3     1  UNL1        0.0059
     13 C          63.0160   89.9493   11.7855 C.3     1  UNL1        0.0088
     14 C          64.0785   90.9726   12.0574 C.3     1  UNL1        0.0007
     15 C          63.8518   89.9803   13.0308 C.3     1  UNL1        0.0007
     16 C          66.1356   91.6820   14.2786 C.ar    1  UNL1        0.0841
     17 C          67.5553   91.7061   13.7948 C.ar    1  UNL1        0.0192
     18 C          68.6303   92.3032   14.6537 C.ar    1  UNL1        0.0015
     19 C          68.2858   92.8761   15.9964 C.ar    1  UNL1        0.0001
     20 C          66.8661   92.8520   16.4803 C.ar    1  UNL1        0.0015
     21 C          65.7911   92.2549   15.6214 C.ar    1  UNL1        0.0192
@<TRIPOS>BOND
     1     1     2    1
     2     2     3   ar
     3     3     4   ar
     4     4     5   ar
     5     5     6    2
     6     5     7   ar
     7     7    16    1
     8    16    17   ar
     9    17    18   ar
    10    18    19   ar
    11    19    20   ar
    12    20    21   ar
    13     4     8    1
    14     8     9    1
    15     9    10    1
    16    10    11    1
    17    11    12    1
    18    11    13    1
    19    13    14    1
    20    13    15    1
    21     7     2   ar
    22    21    16   ar
    23    13     8    1
    24    11     3    1
