@<TRIPOS>MOLECULE
*****
 36 39 0 0 0
SMALL
GASTEIGER

@<TRIPOS>ATOM
      1 C          63.7975   87.7871   14.8309 C.ar    1  UNL1        0.2204
      2 N          64.5991   88.7078   13.9592 N.ar    1  UNL1       -0.2089
      3 C          64.8155   90.1332   14.3732 C.ar    1  UNL1        0.1402
      4 C          64.2304   90.6379   15.6589 C.ar    1  UNL1        0.1773
      5 C          63.4288   89.7172   16.5306 C.ar    1  UNL1        0.1402
      6 N          63.2124   88.2918   16.1165 N.ar    1  UNL1       -0.2089
      7 C          62.8611   87.1581   12.0510 C.3     1  UNL1        0.0233
      8 C          63.1129   86.0472   13.0270 C.3     1  UNL1        0.0955
      9 C          62.8965   84.6218   12.6130 C.3     1  UNL1        0.1149
     10 N          63.1483   83.5109   13.5889 N.pl3   1  UNL1       -0.2586
     11 C          63.6165   83.8254   14.9788 C.3     1  UNL1        0.1167
     12 C          63.8329   85.2507   15.3928 C.3     1  UNL1        0.1151
     13 N          63.5811   86.3617   14.4169 N.pl3   1  UNL1       -0.2764
     14 C          62.9319   82.0855   13.1749 C.ar    1  UNL1        0.3185
     15 N          63.1116   81.5319   11.7924 N.ar    1  UNL1       -0.1701
     16 C          62.7886   80.0677   11.8338 C.ar    1  UNL1        0.2766
     17 N          62.4091   79.7163   13.2419 N.ar    1  UNL1       -0.0499
     18 O          62.4976   80.9634   14.0707 O.2     1  UNL1       -0.3164
     19 C          62.8365   79.1210   10.6712 C.3     1  UNL1        0.4557
     20 F          62.8845   78.1743    9.5087 F       1  UNL1       -0.1631
     21 F          62.9182   80.2841    9.7275 F       1  UNL1       -0.1631
     22 F          62.7548   77.9579   11.6149 F       1  UNL1       -0.1631
     23 O          64.4468   92.0633   16.0729 O.3     1  UNL1       -0.4674
     24 C          65.7538   92.7389   15.7808 C.3     1  UNL1        0.2344
     25 C          66.3940   92.5831   14.4333 C.ar    1  UNL1        0.0486
     26 C          65.6280   92.9381   13.1934 C.ar    1  UNL1        0.0013
     27 C          66.2682   92.7822   11.8459 C.ar    1  UNL1       -0.0026
     28 C          67.6744   92.2714   11.7382 C.ar    1  UNL1        0.0035
     29 C          68.4404   91.9165   12.9780 C.ar    1  UNL1        0.0269
     30 C          67.8003   92.0723   14.3256 C.ar    1  UNL1        0.1393
     31 F          68.5663   91.7173   15.5654 F       1  UNL1       -0.2044
     32 C          68.3146   92.1156   10.3907 C.3     1  UNL1        0.1773
     33 S          68.1249   93.1727    9.3435 S.O2    1  UNL1       -0.0040
     34 C          67.9352   94.2297    8.2962 C.3     1  UNL1        0.1764
     35 O          68.5025   92.1857    8.2789 O.2     1  UNL1       -0.1726
     36 O          67.7473   94.1596   10.4080 O.2     1  UNL1       -0.1726
@<TRIPOS>BOND
     1     8     7    1
     2     8     9    1
     3     9    10    1
     4    10    14    1
     5    14    15   ar
     6    15    16   ar
     7    16    19    1
     8    19    20    1
     9    19    21    1
    10    19    22    1
    11    16    17   ar
    12    17    18   ar
    13    10    11    1
    14    11    12    1
    15    12    13    1
    16    13     1    1
    17     1     2   ar
    18     2     3   ar
    19     3     4   ar
    20     4    23    1
    21    23    24    1
    22    24    25    1
    23    25    26   ar
    24    26    27   ar
    25    27    28   ar
    26    28    32    1
    27    32    33    1
    28    33    34    1
    29    33    35    2
    30    33    36    2
    31    28    29   ar
    32    29    30   ar
    33    30    31    1
    34     4     5   ar
    35     5     6   ar
    36    13     8    1
    37     6     1   ar
    38    18    14   ar
    39    30    25   ar
@<TRIPOS>MOLECULE
*****
 36 39 0 0 0
SMALL
GASTEIGER

@<TRIPOS>ATOM
      1 C          61.9889   85.5597   10.6798 C.ar    1  UNL1        0.2204
      2 N          61.5873   85.5618   12.1251 N.ar    1  UNL1       -0.2089
      3 C          62.2310   84.6043   13.0837 C.ar    1  UNL1        0.1402
      4 C          63.2762   83.6448   12.5971 C.ar    1  UNL1        0.1773
      5 C          63.6778   83.6427   11.1518 C.ar    1  UNL1        0.1402
      6 N          63.0341   84.6002   10.1932 N.ar    1  UNL1       -0.2089
      7 C          62.3229   88.5165   11.0616 C.3     1  UNL1        0.0233
      8 C          61.5122   87.9956    9.9121 C.3     1  UNL1        0.0955
      9 C          60.8685   88.9530    8.9535 C.3     1  UNL1        0.1149
     10 N          60.0578   88.4320    7.8040 N.pl3   1  UNL1       -0.2586
     11 C          59.8907   86.9537    7.6131 C.3     1  UNL1        0.1167
     12 C          60.5344   85.9962    8.5717 C.3     1  UNL1        0.1151
     13 N          61.3452   86.5172    9.7212 N.pl3   1  UNL1       -0.2764
     14 C          59.4141   89.3895    6.8453 C.ar    1  UNL1        0.3185
     15 N          60.1306   90.2799    5.8738 N.ar    1  UNL1       -0.1701
     16 C          59.1002   91.0653    5.1180 C.ar    1  UNL1        0.2766
     17 N          57.7467   90.6605    5.6225 N.ar    1  UNL1       -0.0499
     18 O          57.9408   89.6248    6.6900 O.2     1  UNL1       -0.3164
     19 C          59.3749   92.0779    4.0460 C.3     1  UNL1        0.4557
     20 F          59.6496   93.0905    2.9740 F       1  UNL1       -0.1631
     21 F          60.8478   91.9431    4.2961 F       1  UNL1       -0.1631
     22 F          57.9020   92.2128    3.7959 F       1  UNL1       -0.1631
     23 O          63.9199   82.6873   13.5557 O.3     1  UNL1       -0.4674
     24 C          64.1003   83.0735   14.9938 C.3     1  UNL1        0.2344
     25 C          63.8693   84.4917   15.4242 C.ar    1  UNL1        0.0486
     26 C          62.6772   84.8349   16.2675 C.ar    1  UNL1        0.0013
     27 C          62.4462   86.2532   16.6979 C.ar    1  UNL1       -0.0026
     28 C          63.4073   87.3282   16.2850 C.ar    1  UNL1        0.0035
     29 C          64.5994   86.9851   15.4417 C.ar    1  UNL1        0.0269
     30 C          64.8304   85.5669   15.0113 C.ar    1  UNL1        0.1393
     31 F          66.0225   85.2237   14.1680 F       1  UNL1       -0.2044
     32 C          63.1763   88.7464   16.7154 C.3     1  UNL1        0.1773
     33 S          63.4284   89.8718   15.7562 S.O2    1  UNL1       -0.0040
     34 C          63.6805   90.9972   14.7971 C.3     1  UNL1        0.1764
     35 O          63.2934   88.9204   14.6044 O.2     1  UNL1       -0.1726
     36 O          63.5633   90.8232   16.9080 O.2     1  UNL1       -0.1726
@<TRIPOS>BOND
     1     8     7    1
     2     8     9    1
     3     9    10    1
     4    10    14    1
     5    14    15   ar
     6    15    16   ar
     7    16    19    1
     8    19    20    1
     9    19    21    1
    10    19    22    1
    11    16    17   ar
    12    17    18   ar
    13    10    11    1
    14    11    12    1
    15    12    13    1
    16    13     1    1
    17     1     2   ar
    18     2     3   ar
    19     3     4   ar
    20     4    23    1
    21    23    24    1
    22    24    25    1
    23    25    26   ar
    24    26    27   ar
    25    27    28   ar
    26    28    32    1
    27    32    33    1
    28    33    34    1
    29    33    35    2
    30    33    36    2
    31    28    29   ar
    32    29    30   ar
    33    30    31    1
    34     4     5   ar
    35     5     6   ar
    36    13     8    1
    37     6     1   ar
    38    18    14   ar
    39    30    25   ar
@<TRIPOS>MOLECULE
*****
 36 39 0 0 0
SMALL
GASTEIGER

@<TRIPOS>ATOM
      1 C          59.7008   93.2981    2.5878 C.ar    1  UNL1        0.2204
      2 N          60.1001   94.7107    2.8962 N.ar    1  UNL1       -0.2089
      3 C          60.1611   95.7297    1.7972 C.ar    1  UNL1        0.1402
      4 C          59.8227   95.3362    0.3898 C.ar    1  UNL1        0.1773
      5 C          59.4234   93.9236    0.0814 C.ar    1  UNL1        0.1402
      6 N          59.3624   92.9045    1.1805 N.ar    1  UNL1       -0.2089
      7 C          62.1808   91.8191    3.4014 C.3     1  UNL1        0.0233
      8 C          60.8798   91.5395    4.0936 C.3     1  UNL1        0.0955
      9 C          60.8188   90.5205    5.1926 C.3     1  UNL1        0.1149
     10 N          59.5177   90.2409    5.8848 N.pl3   1  UNL1       -0.2586
     11 C          58.2777   90.9804    5.4780 C.3     1  UNL1        0.1167
     12 C          58.3388   91.9994    4.3790 C.3     1  UNL1        0.1151
     13 N          59.6398   92.2790    3.6868 N.pl3   1  UNL1       -0.2764
     14 C          59.4568   89.2218    6.9838 C.ar    1  UNL1        0.3185
     15 N          60.4102   89.1099    8.1364 N.ar    1  UNL1       -0.1701
     16 C          59.9743   87.9547    8.9881 C.ar    1  UNL1        0.2766
     17 N          58.7514   87.3526    8.3619 N.ar    1  UNL1       -0.0499
     18 O          58.4316   88.1357    7.1232 O.2     1  UNL1       -0.3164
     19 C          60.6438   87.4841   10.2452 C.3     1  UNL1        0.4557
     20 F          61.3132   87.0136   11.5024 F       1  UNL1       -0.1631
     21 F          61.7963   86.9655    9.4374 F       1  UNL1       -0.1631
     22 F          59.4912   88.0028   11.0531 F       1  UNL1       -0.1631
     23 O          59.8837   96.3553   -0.7092 O.3     1  UNL1       -0.4674
     24 C          61.2061   96.7368   -1.3057 C.3     1  UNL1        0.2344
     25 C          62.0084   95.7205   -2.0629 C.ar    1  UNL1        0.0486
     26 C          61.4289   95.0631   -3.2803 C.ar    1  UNL1        0.0013
     27 C          62.2314   94.0468   -4.0376 C.ar    1  UNL1       -0.0026
     28 C          63.6132   93.6880   -3.5774 C.ar    1  UNL1        0.0035
     29 C          64.1926   94.3454   -2.3600 C.ar    1  UNL1        0.0269
     30 C          63.3903   95.3616   -1.6028 C.ar    1  UNL1        0.1393
     31 F          63.9698   96.0190   -0.3854 F       1  UNL1       -0.2044
     32 C          64.4155   92.6717   -4.3346 C.3     1  UNL1        0.1773
     33 S          64.7284   92.8924   -5.7849 S.O2    1  UNL1       -0.0040
     34 C          65.0413   93.1131   -7.2352 C.3     1  UNL1        0.1764
     35 O          65.3369   94.2222   -5.4513 O.2     1  UNL1       -0.1726
     36 O          64.1198   91.5626   -6.1186 O.2     1  UNL1       -0.1726
@<TRIPOS>BOND
     1     8     7    1
     2     8     9    1
     3     9    10    1
     4    10    14    1
     5    14    15   ar
     6    15    16   ar
     7    16    19    1
     8    19    20    1
     9    19    21    1
    10    19    22    1
    11    16    17   ar
    12    17    18   ar
    13    10    11    1
    14    11    12    1
    15    12    13    1
    16    13     1    1
    17     1     2   ar
    18     2     3   ar
    19     3     4   ar
    20     4    23    1
    21    23    24    1
    22    24    25    1
    23    25    26   ar
    24    26    27   ar
    25    27    28   ar
    26    28    32    1
    27    32    33    1
    28    33    34    1
    29    33    35    2
    30    33    36    2
    31    28    29   ar
    32    29    30   ar
    33    30    31    1
    34     4     5   ar
    35     5     6   ar
    36    13     8    1
    37     6     1   ar
    38    18    14   ar
    39    30    25   ar
@<TRIPOS>MOLECULE
*****
 36 39 0 0 0
SMALL
GASTEIGER

@<TRIPOS>ATOM
      1 C          59.7245   93.2469    2.6812 C.ar    1  UNL1        0.2204
      2 N          60.1229   94.6541    3.0141 N.ar    1  UNL1       -0.2089
      3 C          60.2079   95.6862    1.9290 C.ar    1  UNL1        0.1402
      4 C          59.8944   95.3110    0.5108 C.ar    1  UNL1        0.1773
      5 C          59.4959   93.9038    0.1779 C.ar    1  UNL1        0.1402
      6 N          59.4110   92.8717    1.2632 N.ar    1  UNL1       -0.2089
      7 C          62.1826   91.7447    3.5185 C.3     1  UNL1        0.0233
      8 C          60.8686   91.4637    4.1851 C.3     1  UNL1        0.0955
      9 C          60.7836   90.4317    5.2702 C.3     1  UNL1        0.1149
     10 N          59.4695   90.1508    5.9368 N.pl3   1  UNL1       -0.2586
     11 C          58.2405   90.9018    5.5182 C.3     1  UNL1        0.1167
     12 C          58.3255   91.9338    4.4330 C.3     1  UNL1        0.1151
     13 N          59.6395   92.2148    3.7664 N.pl3   1  UNL1       -0.2764
     14 C          59.3846   89.1187    7.0220 C.ar    1  UNL1        0.3185
     15 N          60.2719   89.0326    8.2283 N.ar    1  UNL1       -0.1701
     16 C          59.8331   87.8522    9.0433 C.ar    1  UNL1        0.2766
     17 N          58.6745   87.2088    8.3406 N.ar    1  UNL1       -0.0499
     18 O          58.3973   87.9915    7.0915 O.2     1  UNL1       -0.3164
     19 C          60.4454   87.3954   10.3342 C.3     1  UNL1        0.4557
     20 F          61.0576   86.9387   11.6252 F       1  UNL1       -0.1631
     21 F          60.0735   88.7009   10.9725 F       1  UNL1       -0.1631
     22 F          60.8173   86.0899    9.6959 F       1  UNL1       -0.1631
     23 O          59.9794   96.3431   -0.5743 O.3     1  UNL1       -0.4674
     24 C          58.7898   96.6134   -1.4471 C.3     1  UNL1        0.2344
     25 C          58.5048   95.7261   -2.6225 C.ar    1  UNL1        0.0486
     26 C          59.6340   95.2135   -3.4664 C.ar    1  UNL1        0.0013
     27 C          59.3490   94.3261   -4.6418 C.ar    1  UNL1       -0.0026
     28 C          57.9349   93.9515   -4.9732 C.ar    1  UNL1        0.0035
     29 C          56.8057   94.4641   -4.1293 C.ar    1  UNL1        0.0269
     30 C          57.0907   95.3514   -2.9540 C.ar    1  UNL1        0.1393
     31 F          55.9615   95.8640   -2.1100 F       1  UNL1       -0.2044
     32 C          57.6499   93.0642   -6.1486 C.3     1  UNL1        0.1773
     33 S          56.4739   92.1336   -6.1181 S.O2    1  UNL1       -0.0040
     34 C          55.2978   91.2031   -6.0877 C.3     1  UNL1        0.1764
     35 O          57.2178   91.2239   -5.1860 O.2     1  UNL1       -0.1726
     36 O          55.7299   93.0434   -7.0503 O.2     1  UNL1       -0.1726
@<TRIPOS>BOND
     1     8     7    1
     2     8     9    1
     3     9    10    1
     4    10    14    1
     5    14    15   ar
     6    15    16   ar
     7    16    19    1
     8    19    20    1
     9    19    21    1
    10    19    22    1
    11    16    17   ar
    12    17    18   ar
    13    10    11    1
    14    11    12    1
    15    12    13    1
    16    13     1    1
    17     1     2   ar
    18     2     3   ar
    19     3     4   ar
    20     4    23    1
    21    23    24    1
    22    24    25    1
    23    25    26   ar
    24    26    27   ar
    25    27    28   ar
    26    28    32    1
    27    32    33    1
    28    33    34    1
    29    33    35    2
    30    33    36    2
    31    28    29   ar
    32    29    30   ar
    33    30    31    1
    34     4     5   ar
    35     5     6   ar
    36    13     8    1
    37     6     1   ar
    38    18    14   ar
    39    30    25   ar
@<TRIPOS>MOLECULE
*****
 36 39 0 0 0
SMALL
GASTEIGER

@<TRIPOS>ATOM
      1 C          62.3943   90.1514   11.1747 C.ar    1  UNL1        0.2204
      2 N          60.9375   90.4679   11.3409 N.ar    1  UNL1       -0.2089
      3 C          59.9269   89.8567   10.4162 C.ar    1  UNL1        0.1402
      4 C          60.3731   88.9289    9.3252 C.ar    1  UNL1        0.1773
      5 C          61.8298   88.6124    9.1589 C.ar    1  UNL1        0.1402
      6 N          62.8404   89.2237   10.0837 N.ar    1  UNL1       -0.2089
      7 C          64.2868   92.2445   10.1563 C.3     1  UNL1        0.0233
      8 C          64.3511   91.8091   11.5902 C.3     1  UNL1        0.0955
      9 C          65.3616   92.4203   12.5150 C.3     1  UNL1        0.1149
     10 N          65.4259   91.9849   13.9490 N.pl3   1  UNL1       -0.2586
     11 C          64.4797   90.9384   14.4582 C.3     1  UNL1        0.1167
     12 C          63.4691   90.3272   13.5335 C.3     1  UNL1        0.1151
     13 N          63.4049   90.7626   12.0995 N.pl3   1  UNL1       -0.2764
     14 C          66.4365   92.5962   14.8738 C.ar    1  UNL1        0.3185
     15 N          67.7418   93.2145   14.4689 N.ar    1  UNL1       -0.1701
     16 C          68.4312   93.6968   15.7107 C.ar    1  UNL1        0.2766
     17 N          67.5520   93.3766   16.8831 N.ar    1  UNL1       -0.0499
     18 O          66.3192   92.6964   16.3659 O.2     1  UNL1       -0.3164
     19 C          69.7655   94.3795   15.7697 C.3     1  UNL1        0.4557
     20 F          71.0999   95.0622   15.8288 F       1  UNL1       -0.1631
     21 F          69.1828   95.4420   16.6538 F       1  UNL1       -0.1631
     22 F          70.3483   93.3170   14.8857 F       1  UNL1       -0.1631
     23 O          59.3625   88.3178    8.4005 O.3     1  UNL1       -0.4674
     24 C          59.4945   86.8814    7.9889 C.3     1  UNL1        0.2344
     25 C          60.6641   86.0701    8.4621 C.ar    1  UNL1        0.0486
     26 C          61.5586   85.3924    7.4668 C.ar    1  UNL1        0.0013
     27 C          62.7282   84.5811    7.9400 C.ar    1  UNL1       -0.0026
     28 C          63.0032   84.4475    9.4085 C.ar    1  UNL1        0.0035
     29 C          62.1087   85.1252   10.4038 C.ar    1  UNL1        0.0269
     30 C          60.9392   85.9365    9.9306 C.ar    1  UNL1        0.1393
     31 F          60.0447   86.6142   10.9259 F       1  UNL1       -0.2044
     32 C          64.1728   83.6363    9.8817 C.3     1  UNL1        0.1773
     33 S          64.0315   82.7445   11.0795 S.O2    1  UNL1       -0.0040
     34 C          63.8902   81.8527   12.2774 C.3     1  UNL1        0.1764
     35 O          64.6310   83.8126   11.9454 O.2     1  UNL1       -0.1726
     36 O          63.4319   81.6764   10.2136 O.2     1  UNL1       -0.1726
@<TRIPOS>BOND
     1     8     7    1
     2     8     9    1
     3     9    10    1
     4    10    14    1
     5    14    15   ar
     6    15    16   ar
     7    16    19    1
     8    19    20    1
     9    19    21    1
    10    19    22    1
    11    16    17   ar
    12    17    18   ar
    13    10    11    1
    14    11    12    1
    15    12    13    1
    16    13     1    1
    17     1     2   ar
    18     2     3   ar
    19     3     4   ar
    20     4    23    1
    21    23    24    1
    22    24    25    1
    23    25    26   ar
    24    26    27   ar
    25    27    28   ar
    26    28    32    1
    27    32    33    1
    28    33    34    1
    29    33    35    2
    30    33    36    2
    31    28    29   ar
    32    29    30   ar
    33    30    31    1
    34     4     5   ar
    35     5     6   ar
    36    13     8    1
    37     6     1   ar
    38    18    14   ar
    39    30    25   ar
@<TRIPOS>MOLECULE
*****
 36 39 0 0 0
SMALL
GASTEIGER

@<TRIPOS>ATOM
      1 C          63.7610   88.2332   15.2748 C.ar    1  UNL1        0.2204
      2 N          63.1165   88.9603   16.4176 N.ar    1  UNL1       -0.2089
      3 C          63.4800   90.3881   16.6987 C.ar    1  UNL1        0.1402
      4 C          64.4881   91.0890   15.8369 C.ar    1  UNL1        0.1773
      5 C          65.1326   90.3620   14.6941 C.ar    1  UNL1        0.1402
      6 N          64.7690   88.9340   14.4131 N.ar    1  UNL1       -0.2089
      7 C          62.7359   86.4833   17.4855 C.3     1  UNL1        0.0233
      8 C          62.8849   85.9304   16.0991 C.3     1  UNL1        0.0955
      9 C          62.5214   84.5025   15.8181 C.3     1  UNL1        0.1149
     10 N          62.6704   83.9496   14.4317 N.pl3   1  UNL1       -0.2586
     11 C          63.1829   84.8245   13.3264 C.3     1  UNL1        0.1167
     12 C          63.5465   86.2523   13.6074 C.3     1  UNL1        0.1151
     13 N          63.3974   86.8053   14.9938 N.pl3   1  UNL1       -0.2764
     14 C          62.3068   82.5217   14.1507 C.ar    1  UNL1        0.3185
     15 N          61.0007   81.8628   14.4821 N.ar    1  UNL1       -0.1701
     16 C          61.0722   80.4359   14.0251 C.ar    1  UNL1        0.2766
     17 N          62.4226   80.2128   13.4113 N.ar    1  UNL1       -0.0499
     18 O          63.1856   81.5019   13.4889 O.2     1  UNL1       -0.3164
     19 C          59.9844   79.4117   14.1585 C.3     1  UNL1        0.4557
     20 F          58.8965   78.3876   14.2920 F       1  UNL1       -0.1631
     21 F          61.0126   78.3196   14.1585 F       1  UNL1       -0.1631
     22 F          58.9562   80.5039   14.1586 F       1  UNL1       -0.1631
     23 O          64.8516   92.5169   16.1180 O.3     1  UNL1       -0.4674
     24 C          66.2002   93.0397   15.7205 C.3     1  UNL1        0.2344
     25 C          66.7212   92.7946   14.3355 C.ar    1  UNL1        0.0486
     26 C          65.9087   93.2083   13.1444 C.ar    1  UNL1        0.0013
     27 C          66.4297   92.9632   11.7593 C.ar    1  UNL1       -0.0026
     28 C          67.7633   92.3045   11.5653 C.ar    1  UNL1        0.0035
     29 C          68.5758   91.8908   12.7563 C.ar    1  UNL1        0.0269
     30 C          68.0548   92.1359   14.1414 C.ar    1  UNL1        0.1393
     31 F          68.8674   91.7222   15.3325 F       1  UNL1       -0.2044
     32 C          68.2843   92.0595   10.1802 C.3     1  UNL1        0.1773
     33 S          68.2154   93.1472    9.1496 S.O2    1  UNL1       -0.0040
     34 C          68.1465   94.2349    8.1190 C.3     1  UNL1        0.1764
     35 O          68.6353   92.1709    8.0911 O.2     1  UNL1       -0.1726
     36 O          67.7954   94.1235   10.2081 O.2     1  UNL1       -0.1726
@<TRIPOS>BOND
     1     8     7    1
     2     8     9    1
     3     9    10    1
     4    10    14    1
     5    14    15   ar
     6    15    16   ar
     7    16    19    1
     8    19    20    1
     9    19    21    1
    10    19    22    1
    11    16    17   ar
    12    17    18   ar
    13    10    11    1
    14    11    12    1
    15    12    13    1
    16    13     1    1
    17     1     2   ar
    18     2     3   ar
    19     3     4   ar
    20     4    23    1
    21    23    24    1
    22    24    25    1
    23    25    26   ar
    24    26    27   ar
    25    27    28   ar
    26    28    32    1
    27    32    33    1
    28    33    34    1
    29    33    35    2
    30    33    36    2
    31    28    29   ar
    32    29    30   ar
    33    30    31    1
    34     4     5   ar
    35     5     6   ar
    36    13     8    1
    37     6     1   ar
    38    18    14   ar
    39    30    25   ar
@<TRIPOS>MOLECULE
*****
 36 39 0 0 0
SMALL
GASTEIGER

@<TRIPOS>ATOM
      1 C          59.7602   93.2306    2.6354 C.ar    1  UNL1        0.2204
      2 N          60.1239   94.6504    2.9546 N.ar    1  UNL1       -0.2089
      3 C          60.2068   95.6684    1.8561 C.ar    1  UNL1        0.1402
      4 C          59.9260   95.2667    0.4384 C.ar    1  UNL1        0.1773
      5 C          59.5623   93.8468    0.1193 C.ar    1  UNL1        0.1402
      6 N          59.4794   92.8288    1.2178 N.ar    1  UNL1       -0.2089
      7 C          62.2151   91.7221    3.4710 C.3     1  UNL1        0.0233
      8 C          60.9047   91.4583    4.1518 C.3     1  UNL1        0.0955
      9 C          60.8218   90.4403    5.2503 C.3     1  UNL1        0.1149
     10 N          59.5115   90.1766    5.9311 N.pl3   1  UNL1       -0.2586
     11 C          58.2841   90.9308    5.5133 C.3     1  UNL1        0.1167
     12 C          58.3670   91.9488    4.4148 C.3     1  UNL1        0.1151
     13 N          59.6773   92.2125    3.7340 N.pl3   1  UNL1       -0.2764
     14 C          59.4286   89.1585    7.0296 C.ar    1  UNL1        0.3185
     15 N          60.3331   89.0738    8.2232 N.ar    1  UNL1       -0.1701
     16 C          59.8901   87.9094    9.0587 C.ar    1  UNL1        0.2766
     17 N          58.7118   87.2745    8.3814 N.ar    1  UNL1       -0.0499
     18 O          58.4266   88.0465    7.1274 O.2     1  UNL1       -0.3164
     19 C          60.5157   87.4589   10.3455 C.3     1  UNL1        0.4557
     20 F          61.1412   87.0085   11.6323 F       1  UNL1       -0.1631
     21 F          59.5179   88.2726   11.1153 F       1  UNL1       -0.1631
     22 F          61.5134   86.6453    9.5757 F       1  UNL1       -0.1631
     23 O          60.0089   96.2847   -0.6601 O.3     1  UNL1       -0.4674
     24 C          59.3737   96.0063   -1.9901 C.3     1  UNL1        0.2344
     25 C          60.2064   95.4889   -3.1254 C.ar    1  UNL1        0.0486
     26 C          61.4984   94.7801   -2.8456 C.ar    1  UNL1        0.0013
     27 C          62.3311   94.2626   -3.9809 C.ar    1  UNL1       -0.0026
     28 C          61.8717   94.4539   -5.3959 C.ar    1  UNL1        0.0035
     29 C          60.5797   95.1626   -5.6757 C.ar    1  UNL1        0.0269
     30 C          59.7470   95.6801   -4.5405 C.ar    1  UNL1        0.1393
     31 F          58.4550   96.3889   -4.8203 F       1  UNL1       -0.2044
     32 C          62.7044   93.9364   -6.5311 C.3     1  UNL1        0.1773
     33 S          64.1648   93.6620   -6.3259 S.O2    1  UNL1       -0.0040
     34 C          65.6251   93.3876   -6.1206 C.3     1  UNL1        0.1764
     35 O          63.8684   92.1996   -6.1724 O.2     1  UNL1       -0.1726
     36 O          64.4612   95.1244   -6.4794 O.2     1  UNL1       -0.1726
@<TRIPOS>BOND
     1     8     7    1
     2     8     9    1
     3     9    10    1
     4    10    14    1
     5    14    15   ar
     6    15    16   ar
     7    16    19    1
     8    19    20    1
     9    19    21    1
    10    19    22    1
    11    16    17   ar
    12    17    18   ar
    13    10    11    1
    14    11    12    1
    15    12    13    1
    16    13     1    1
    17     1     2   ar
    18     2     3   ar
    19     3     4   ar
    20     4    23    1
    21    23    24    1
    22    24    25    1
    23    25    26   ar
    24    26    27   ar
    25    27    28   ar
    26    28    32    1
    27    32    33    1
    28    33    34    1
    29    33    35    2
    30    33    36    2
    31    28    29   ar
    32    29    30   ar
    33    30    31    1
    34     4     5   ar
    35     5     6   ar
    36    13     8    1
    37     6     1   ar
    38    18    14   ar
    39    30    25   ar
@<TRIPOS>MOLECULE
*****
 36 39 0 0 0
SMALL
GASTEIGER

@<TRIPOS>ATOM
      1 C          59.9292   89.2496    7.1454 C.ar    1  UNL1        0.2204
      2 N          58.4592   89.4137    6.8962 N.ar    1  UNL1       -0.2089
      3 C          57.9794   90.3550    5.8316 C.ar    1  UNL1        0.1402
      4 C          58.9697   91.1325    5.0160 C.ar    1  UNL1        0.1773
      5 C          60.4397   90.9684    5.2652 C.ar    1  UNL1        0.1402
      6 N          60.9195   90.0270    6.3299 N.ar    1  UNL1       -0.2089
      7 C          60.3222   90.2339    9.9520 C.3     1  UNL1        0.0233
      8 C          60.6055   88.8003    9.6134 C.3     1  UNL1        0.0955
      9 C          61.0852   87.8589   10.6780 C.3     1  UNL1        0.1149
     10 N          61.3685   86.4253   10.3394 N.pl3   1  UNL1       -0.2586
     11 C          61.1720   85.9332    8.9361 C.3     1  UNL1        0.1167
     12 C          60.6923   86.8746    7.8715 C.3     1  UNL1        0.1151
     13 N          60.4090   88.3082    8.2101 N.pl3   1  UNL1       -0.2764
     14 C          61.8482   85.4838   11.4041 C.ar    1  UNL1        0.3185
     15 N          62.2978   84.0686   11.1923 N.ar    1  UNL1       -0.1701
     16 C          62.6901   83.5025   12.5249 C.ar    1  UNL1        0.2766
     17 N          62.4829   84.5679   13.5603 N.ar    1  UNL1       -0.0499
     18 O          61.9626   85.7924   12.8676 O.2     1  UNL1       -0.3164
     19 C          63.2000   82.1146   12.7777 C.3     1  UNL1        0.4557
     20 F          63.7098   80.7268   13.0305 F       1  UNL1       -0.1631
     21 F          61.7921   81.5970   12.7758 F       1  UNL1       -0.1631
     22 F          64.6078   82.6322   12.7796 F       1  UNL1       -0.1631
     23 O          58.4899   92.0738    3.9513 O.3     1  UNL1       -0.4674
     24 C          59.3632   93.2086    3.5045 C.3     1  UNL1        0.2344
     25 C          59.9839   93.1846    2.1392 C.ar    1  UNL1        0.0486
     26 C          59.1522   93.5007    0.9315 C.ar    1  UNL1        0.0013
     27 C          59.7730   93.4767   -0.4338 C.ar    1  UNL1       -0.0026
     28 C          61.2254   93.1367   -0.5915 C.ar    1  UNL1        0.0035
     29 C          62.0571   92.8207    0.6162 C.ar    1  UNL1        0.0269
     30 C          61.4364   92.8446    1.9815 C.ar    1  UNL1        0.1393
     31 F          62.2681   92.5286    3.1891 F       1  UNL1       -0.2044
     32 C          61.8461   93.1128   -1.9568 C.3     1  UNL1        0.1773
     33 S          63.0154   94.0005   -2.2648 S.O2    1  UNL1       -0.0040
     34 C          64.1846   94.8882   -2.5727 C.3     1  UNL1        0.1764
     35 O          63.7926   92.8105   -2.7443 O.2     1  UNL1       -0.1726
     36 O          62.2382   95.1905   -1.7853 O.2     1  UNL1       -0.1726
@<TRIPOS>BOND
     1     8     7    1
     2     8     9    1
     3     9    10    1
     4    10    14    1
     5    14    15   ar
     6    15    16   ar
     7    16    19    1
     8    19    20    1
     9    19    21    1
    10    19    22    1
    11    16    17   ar
    12    17    18   ar
    13    10    11    1
    14    11    12    1
    15    12    13    1
    16    13     1    1
    17     1     2   ar
    18     2     3   ar
    19     3     4   ar
    20     4    23    1
    21    23    24    1
    22    24    25    1
    23    25    26   ar
    24    26    27   ar
    25    27    28   ar
    26    28    32    1
    27    32    33    1
    28    33    34    1
    29    33    35    2
    30    33    36    2
    31    28    29   ar
    32    29    30   ar
    33    30    31    1
    34     4     5   ar
    35     5     6   ar
    36    13     8    1
    37     6     1   ar
    38    18    14   ar
    39    30    25   ar
@<TRIPOS>MOLECULE
*****
 36 39 0 0 0
SMALL
GASTEIGER

@<TRIPOS>ATOM
      1 C          63.7913   87.7048   14.9020 C.ar    1  UNL1        0.2204
      2 N          63.0908   88.2640   16.1047 N.ar    1  UNL1       -0.2089
      3 C          63.3227   89.6886   16.5129 C.ar    1  UNL1        0.1402
      4 C          64.2553   90.5541   15.7184 C.ar    1  UNL1        0.1773
      5 C          64.9559   89.9950   14.5156 C.ar    1  UNL1        0.1402
      6 N          64.7238   88.5703   14.1074 N.ar    1  UNL1       -0.2089
      7 C          63.4375   85.5837   16.9938 C.3     1  UNL1        0.0233
      8 C          63.3824   85.2196   15.5397 C.3     1  UNL1        0.0955
      9 C          63.1504   83.7950   15.1314 C.3     1  UNL1        0.1149
     10 N          63.0953   83.4310   13.6773 N.pl3   1  UNL1       -0.2586
     11 C          63.2723   84.4915   12.6314 C.3     1  UNL1        0.1167
     12 C          63.5043   85.9161   13.0397 C.3     1  UNL1        0.1151
     13 N          63.5593   86.2801   14.4938 N.pl3   1  UNL1       -0.2764
     14 C          62.8633   82.0063   13.2691 C.ar    1  UNL1        0.3185
     15 N          63.0547   81.4411   11.8929 N.ar    1  UNL1       -0.1701
     16 C          62.7088   79.9822   11.9388 C.ar    1  UNL1        0.2766
     17 N          62.3038   79.6458   13.3434 N.ar    1  UNL1       -0.0499
     18 O          62.3993   80.8967   14.1655 O.2     1  UNL1       -0.3164
     19 C          62.7592   79.0274   10.7830 C.3     1  UNL1        0.4557
     20 F          62.8096   78.0726    9.6272 F       1  UNL1       -0.1631
     21 F          62.6521   77.8717   11.7331 F       1  UNL1       -0.1631
     22 F          62.8664   80.1832    9.8329 F       1  UNL1       -0.1631
     23 O          64.4873   91.9787   16.1266 O.3     1  UNL1       -0.4674
     24 C          65.8153   92.6262   15.8680 C.3     1  UNL1        0.2344
     25 C          66.4671   92.4900   14.5239 C.ar    1  UNL1        0.0486
     26 C          67.9516   92.2983   14.4262 C.ar    1  UNL1        0.0013
     27 C          68.6034   92.1621   13.0820 C.ar    1  UNL1       -0.0026
     28 C          67.7707   92.2176   11.8357 C.ar    1  UNL1        0.0035
     29 C          66.2862   92.4094   11.9334 C.ar    1  UNL1        0.0269
     30 C          65.6344   92.5456   13.2774 C.ar    1  UNL1        0.1393
     31 F          64.1499   92.7373   13.3751 F       1  UNL1       -0.2044
     32 C          68.4225   92.0814   10.4916 C.3     1  UNL1        0.1773
     33 S          68.1222   93.0746    9.4083 S.O2    1  UNL1       -0.0040
     34 C          67.8218   94.0677    8.3250 C.3     1  UNL1        0.1764
     35 O          67.7444   94.0909   10.4448 O.2     1  UNL1       -0.1726
     36 O          68.5000   92.0582    8.3718 O.2     1  UNL1       -0.1726
@<TRIPOS>BOND
     1     8     7    1
     2     8     9    1
     3     9    10    1
     4    10    14    1
     5    14    15   ar
     6    15    16   ar
     7    16    19    1
     8    19    20    1
     9    19    21    1
    10    19    22    1
    11    16    17   ar
    12    17    18   ar
    13    10    11    1
    14    11    12    1
    15    12    13    1
    16    13     1    1
    17     1     2   ar
    18     2     3   ar
    19     3     4   ar
    20     4    23    1
    21    23    24    1
    22    24    25    1
    23    25    26   ar
    24    26    27   ar
    25    27    28   ar
    26    28    32    1
    27    32    33    1
    28    33    34    1
    29    33    35    2
    30    33    36    2
    31    28    29   ar
    32    29    30   ar
    33    30    31    1
    34     4     5   ar
    35     5     6   ar
    36    13     8    1
    37     6     1   ar
    38    18    14   ar
    39    30    25   ar
