@<TRIPOS>MOLECULE
*****
 43 47 0 0 0
SMALL
GASTEIGER

@<TRIPOS>ATOM
      1 N          62.4923   88.2403   11.2282 N.am    1  UNL1       -0.2699
      2 C          62.7234   86.9454   11.9493 C.2     1  UNL1        0.2306
      3 O          62.7207   86.9112   13.4489 O.2     1  UNL1       -0.2745
      4 C          60.9261   89.7495   12.6492 C.3     1  UNL1        0.0297
      5 C          62.2585   89.5010   12.0067 C.3     1  UNL1        0.1329
      6 C          63.3572   90.5131   12.1428 C.ar    1  UNL1        0.1462
      7 N          63.6557   91.4526   11.0123 N.ar    1  UNL1       -0.2114
      8 C          64.7545   92.4647   11.1483 C.ar    1  UNL1        0.1682
      9 N          65.0529   93.4043   10.0178 N.ar    1  UNL1       -0.2249
     10 C          66.1516   94.4163   10.1539 C.ar    1  UNL1        0.1006
     11 C          66.9518   94.4889   11.4205 C.ar    1  UNL1        0.0209
     12 C          66.6534   93.5493   12.5511 C.ar    1  UNL1        0.0094
     13 C          65.5547   92.5373   12.4150 C.ar    1  UNL1        0.0923
     14 C          65.2562   91.5977   13.5455 C.ar    1  UNL1        0.2685
     15 O          66.0564   91.6702   14.8122 O.2     1  UNL1       -0.2665
     16 N          64.1575   90.5856   13.4094 N.ar    1  UNL1       -0.2612
     17 C          63.8589   89.6460   14.5400 C.ar    1  UNL1        0.0682
     18 C          64.4705   88.2765   14.5584 C.ar    1  UNL1        0.0208
     19 C          64.1721   87.3369   15.6889 C.ar    1  UNL1        0.0381
     20 C          63.2620   87.7669   16.8010 C.ar    1  UNL1        0.1338
     21 O          62.9635   86.8273   17.9316 O.3     1  UNL1       -0.5055
     22 C          62.6504   89.1364   16.7826 C.ar    1  UNL1        0.0381
     23 C          62.9489   90.0760   15.6521 C.ar    1  UNL1        0.0208
     24 H          63.3455   85.9718   17.9431 H       1  UNL1        0.2922
     25 C          62.4950   88.2745    9.7286 C.3     1  UNL1        0.1220
     26 C          61.2960   87.7951    8.9653 C.ar    1  UNL1        0.0169
     27 C          61.2350   86.3781    8.4772 C.ar    1  UNL1        0.0005
     28 C          60.0360   85.8987    7.7139 C.ar    1  UNL1        0.0204
     29 C          58.8980   86.8364    7.4387 C.ar    1  UNL1        0.0989
     30 N          58.9590   88.2534    7.9268 N.ar    1  UNL1       -0.2426
     31 C          60.1580   88.7328    8.6901 C.ar    1  UNL1        0.0962
     32 C          62.9572   85.6848   11.1708 C.3     1  UNL1        0.1116
     33 C          62.8643   84.3529   11.8545 C.ar    1  UNL1       -0.0129
     34 C          62.8092   84.2807   13.3517 C.ar    1  UNL1       -0.0007
     35 C          62.7164   82.9488   14.0355 C.ar    1  UNL1        0.0369
     36 C          62.6787   81.6891   13.2219 C.ar    1  UNL1        0.1468
     37 C          62.7339   81.7614   11.7247 C.ar    1  UNL1        0.0369
     38 C          62.8267   83.0932   11.0410 C.ar    1  UNL1       -0.0007
     39 O          62.5859   80.3573   13.9056 O.3     1  UNL1       -0.4045
     40 C          61.2627   79.6586   14.0105 C.3     1  UNL1        0.5753
     41 F          59.9395   78.9600   14.1153 F       1  UNL1       -0.1328
     42 F          60.6325   80.9265   14.5059 F       1  UNL1       -0.1328
     43 F          61.8928   78.3908   13.5150 F       1  UNL1       -0.1328
@<TRIPOS>BOND
     1     5     4    1
     2     5     6    1
     3     6     7   ar
     4     7     8   ar
     5     8     9   ar
     6     9    10   ar
     7    10    11   ar
     8    11    12   ar
     9    12    13   ar
    10    13    14   ar
    11    14    15    2
    12    14    16   ar
    13    16    17    1
    14    17    18   ar
    15    18    19   ar
    16    19    20   ar
    17    20    21    1
    18    20    22   ar
    19    22    23   ar
    20     5     1    1
    21     1    25    1
    22    25    26    1
    23    26    27   ar
    24    27    28   ar
    25    28    29   ar
    26    29    30   ar
    27    30    31   ar
    28     1     2   am
    29     2     3    2
    30     2    32    1
    31    32    33    1
    32    33    34   ar
    33    34    35   ar
    34    35    36   ar
    35    36    39    1
    36    39    40    1
    37    40    41    1
    38    40    42    1
    39    40    43    1
    40    36    37   ar
    41    37    38   ar
    42    16     6   ar
    43    23    17   ar
    44    31    26   ar
    45    38    33   ar
    46    13     8   ar
    47    21    24    1
@<TRIPOS>MOLECULE
*****
 43 47 0 0 0
SMALL
GASTEIGER

@<TRIPOS>ATOM
      1 N          62.7338   88.9245   12.8004 N.am    1  UNL1       -0.2699
      2 C          62.5603   90.4050   12.6326 C.2     1  UNL1        0.2306
      3 O          61.4113   90.9393   11.8299 O.2     1  UNL1       -0.2745
      4 C          60.3013   88.3300   12.1083 C.3     1  UNL1        0.0297
      5 C          61.7583   87.9784   12.1655 C.3     1  UNL1        0.1329
      6 C          62.2399   86.6806   11.5876 C.ar    1  UNL1        0.1462
      7 N          62.9747   85.7008   12.4537 N.ar    1  UNL1       -0.2114
      8 C          63.4564   84.4030   11.8759 C.ar    1  UNL1        0.1682
      9 N          64.1912   83.4232   12.7419 N.ar    1  UNL1       -0.2249
     10 C          64.6727   82.1255   12.1641 C.ar    1  UNL1        0.1006
     11 C          64.4195   81.8075   10.7202 C.ar    1  UNL1        0.0209
     12 C          63.6847   82.7873    9.8542 C.ar    1  UNL1        0.0094
     13 C          63.2031   84.0850   10.4320 C.ar    1  UNL1        0.0923
     14 C          62.4683   85.0649    9.5659 C.ar    1  UNL1        0.2685
     15 O          62.2151   84.7469    8.1221 O.2     1  UNL1       -0.2665
     16 N          61.9867   86.3626   10.1438 N.ar    1  UNL1       -0.2612
     17 C          61.2519   87.3425    9.2777 C.ar    1  UNL1        0.0682
     18 C          61.6329   88.7931    9.2967 C.ar    1  UNL1        0.0208
     19 C          60.8981   89.7730    8.4307 C.ar    1  UNL1        0.0381
     20 C          59.7823   89.3021    7.5457 C.ar    1  UNL1        0.1338
     21 O          59.0475   90.2820    6.6797 O.3     1  UNL1       -0.5055
     22 C          59.4013   87.8514    7.5267 C.ar    1  UNL1        0.0381
     23 C          60.1361   86.8716    8.3927 C.ar    1  UNL1        0.0208
     24 H          59.2855   91.1882    6.6915 H       1  UNL1        0.2922
     25 C          63.8828   88.3903   13.6031 C.3     1  UNL1        0.1220
     26 C          63.6442   87.8327   14.9750 C.ar    1  UNL1        0.0169
     27 C          63.1682   88.7314   16.0775 C.ar    1  UNL1        0.0005
     28 C          62.9296   88.1739   17.4495 C.ar    1  UNL1        0.0204
     29 C          63.1670   86.7175   17.7189 C.ar    1  UNL1        0.0989
     30 N          63.6430   85.8188   16.6163 N.ar    1  UNL1       -0.2426
     31 C          63.8816   86.3763   15.2444 C.ar    1  UNL1        0.0962
     32 C          63.5358   91.3512   13.2675 C.3     1  UNL1        0.1116
     33 C          64.7673   91.7713   12.5213 C.ar    1  UNL1       -0.0129
     34 C          64.6849   92.0923   11.0584 C.ar    1  UNL1       -0.0007
     35 C          65.9165   92.5124   10.3122 C.ar    1  UNL1        0.0369
     36 C          67.2305   92.6114   11.0289 C.ar    1  UNL1        0.1468
     37 C          67.3129   92.2903   12.4918 C.ar    1  UNL1        0.0369
     38 C          66.0814   91.8703   13.2380 C.ar    1  UNL1       -0.0007
     39 O          68.4620   93.0315   10.2827 O.3     1  UNL1       -0.4045
     40 C          68.3591   93.4689    8.8516 C.3     1  UNL1        0.5753
     41 F          68.2563   93.9063    7.4205 F       1  UNL1       -0.1328
     42 F          68.1235   94.8807    9.3000 F       1  UNL1       -0.1328
     43 F          68.5948   92.0570    8.4031 F       1  UNL1       -0.1328
@<TRIPOS>BOND
     1     5     4    1
     2     5     6    1
     3     6     7   ar
     4     7     8   ar
     5     8     9   ar
     6     9    10   ar
     7    10    11   ar
     8    11    12   ar
     9    12    13   ar
    10    13    14   ar
    11    14    15    2
    12    14    16   ar
    13    16    17    1
    14    17    18   ar
    15    18    19   ar
    16    19    20   ar
    17    20    21    1
    18    20    22   ar
    19    22    23   ar
    20     5     1    1
    21     1    25    1
    22    25    26    1
    23    26    27   ar
    24    27    28   ar
    25    28    29   ar
    26    29    30   ar
    27    30    31   ar
    28     1     2   am
    29     2     3    2
    30     2    32    1
    31    32    33    1
    32    33    34   ar
    33    34    35   ar
    34    35    36   ar
    35    36    39    1
    36    39    40    1
    37    40    41    1
    38    40    42    1
    39    40    43    1
    40    36    37   ar
    41    37    38   ar
    42    16     6   ar
    43    23    17   ar
    44    31    26   ar
    45    38    33   ar
    46    13     8   ar
    47    21    24    1
@<TRIPOS>MOLECULE
*****
 43 47 0 0 0
SMALL
GASTEIGER

@<TRIPOS>ATOM
      1 N          63.1353   86.3350   12.8615 N.am    1  UNL1       -0.2699
      2 C          62.9972   85.0240   12.1457 C.2     1  UNL1        0.2306
      3 O          62.0286   84.8888   11.0084 O.2     1  UNL1       -0.2745
      4 C          60.8156   87.3735   12.3222 C.3     1  UNL1        0.0297
      5 C          62.3047   87.5108   12.4399 C.3     1  UNL1        0.1329
      6 C          62.9631   88.8239   12.1361 C.ar    1  UNL1        0.1462
      7 N          63.8930   89.4456   13.1354 N.ar    1  UNL1       -0.2114
      8 C          64.5515   90.7587   12.8316 C.ar    1  UNL1        0.1682
      9 N          65.4814   91.3804   13.8309 N.ar    1  UNL1       -0.2249
     10 C          66.1398   92.6934   13.5271 C.ar    1  UNL1        0.1006
     11 C          65.8684   93.3847   12.2239 C.ar    1  UNL1        0.0209
     12 C          64.9385   92.7631   11.2245 C.ar    1  UNL1        0.0094
     13 C          64.2800   91.4500   11.5284 C.ar    1  UNL1        0.0923
     14 C          63.3501   90.8283   10.5290 C.ar    1  UNL1        0.2685
     15 O          63.0786   91.5196    9.2258 O.2     1  UNL1       -0.2665
     16 N          62.6917   89.5152   10.8329 N.ar    1  UNL1       -0.2612
     17 C          61.7617   88.8935    9.8335 C.ar    1  UNL1        0.0682
     18 C          62.0654   87.5374    9.2688 C.ar    1  UNL1        0.0208
     19 C          61.1356   86.9156    8.2695 C.ar    1  UNL1        0.0381
     20 C          59.9020   87.6499    7.8348 C.ar    1  UNL1        0.1338
     21 O          58.9720   87.0281    6.8355 O.3     1  UNL1       -0.5055
     22 C          59.5983   89.0060    8.3995 C.ar    1  UNL1        0.0381
     23 C          60.5281   89.6278    9.3988 C.ar    1  UNL1        0.0208
     24 H          59.1617   86.1811    6.4827 H       1  UNL1        0.2922
     25 C          64.1039   86.4703   13.9987 C.3     1  UNL1        0.1220
     26 C          63.5968   86.6007   15.4043 C.ar    1  UNL1        0.0169
     27 C          63.5538   87.9470   16.0643 C.ar    1  UNL1        0.0005
     28 C          63.0467   88.0775   17.4699 C.ar    1  UNL1        0.0204
     29 C          62.5826   86.8616   18.2156 C.ar    1  UNL1        0.0989
     30 N          62.6256   85.5153   17.5557 N.ar    1  UNL1       -0.2426
     31 C          63.1327   85.3848   16.1501 C.ar    1  UNL1        0.0962
     32 C          63.8278   83.8483   12.5672 C.3     1  UNL1        0.1116
     33 C          63.5015   82.4770   12.0544 C.ar    1  UNL1       -0.0129
     34 C          63.6059   82.1803   10.5877 C.ar    1  UNL1       -0.0007
     35 C          63.2795   80.8089   10.0749 C.ar    1  UNL1        0.0369
     36 C          62.8488   79.7344   11.0287 C.ar    1  UNL1        0.1468
     37 C          62.7445   80.0311   12.4953 C.ar    1  UNL1        0.0369
     38 C          63.0708   81.4023   13.0082 C.ar    1  UNL1       -0.0007
     39 O          62.5225   78.3631   10.5158 O.3     1  UNL1       -0.4045
     40 C          63.6063   77.4995    9.9417 C.3     1  UNL1        0.5753
     41 F          64.6901   76.6359    9.3676 F       1  UNL1       -0.1328
     42 F          63.8235   78.5006    8.8460 F       1  UNL1       -0.1328
     43 F          63.3890   76.4984   11.0374 F       1  UNL1       -0.1328
@<TRIPOS>BOND
     1     5     4    1
     2     5     6    1
     3     6     7   ar
     4     7     8   ar
     5     8     9   ar
     6     9    10   ar
     7    10    11   ar
     8    11    12   ar
     9    12    13   ar
    10    13    14   ar
    11    14    15    2
    12    14    16   ar
    13    16    17    1
    14    17    18   ar
    15    18    19   ar
    16    19    20   ar
    17    20    21    1
    18    20    22   ar
    19    22    23   ar
    20     5     1    1
    21     1    25    1
    22    25    26    1
    23    26    27   ar
    24    27    28   ar
    25    28    29   ar
    26    29    30   ar
    27    30    31   ar
    28     1     2   am
    29     2     3    2
    30     2    32    1
    31    32    33    1
    32    33    34   ar
    33    34    35   ar
    34    35    36   ar
    35    36    39    1
    36    39    40    1
    37    40    41    1
    38    40    42    1
    39    40    43    1
    40    36    37   ar
    41    37    38   ar
    42    16     6   ar
    43    23    17   ar
    44    31    26   ar
    45    38    33   ar
    46    13     8   ar
    47    21    24    1
@<TRIPOS>MOLECULE
*****
 43 47 0 0 0
SMALL
GASTEIGER

@<TRIPOS>ATOM
      1 N          61.6805   89.1026   10.3588 N.am    1  UNL1       -0.2699
      2 C          60.4466   89.5152    9.6122 C.2     1  UNL1        0.2306
      3 O          59.5449   90.5712   10.1793 O.2     1  UNL1       -0.2745
      4 C          61.1595   89.4769   12.8764 C.3     1  UNL1        0.0297
      5 C          62.0126   89.7461   11.6724 C.3     1  UNL1        0.1329
      6 C          63.1980   90.6588   11.7820 C.ar    1  UNL1        0.1462
      7 N          63.4613   91.6778   10.7132 N.ar    1  UNL1       -0.2114
      8 C          64.6467   92.5905   10.8228 C.ar    1  UNL1        0.1682
      9 N          64.9100   93.6095    9.7540 N.ar    1  UNL1       -0.2249
     10 C          66.0953   94.5221    9.8637 C.ar    1  UNL1        0.1006
     11 C          67.0173   94.4159   11.0421 C.ar    1  UNL1        0.0209
     12 C          66.7539   93.3969   12.1109 C.ar    1  UNL1        0.0094
     13 C          65.5686   92.4843   12.0012 C.ar    1  UNL1        0.0923
     14 C          65.3052   91.4653   13.0701 C.ar    1  UNL1        0.2685
     15 O          66.2272   91.3590   14.2485 O.2     1  UNL1       -0.2665
     16 N          64.1199   90.5526   12.9604 N.ar    1  UNL1       -0.2612
     17 C          63.8565   89.5336   14.0293 C.ar    1  UNL1        0.0682
     18 C          63.2151   89.9491   15.3199 C.ar    1  UNL1        0.0208
     19 C          62.9517   88.9302   16.3887 C.ar    1  UNL1        0.0381
     20 C          63.3297   87.4957   16.1669 C.ar    1  UNL1        0.1338
     21 O          63.0663   86.4767   17.2357 O.3     1  UNL1       -0.5055
     22 C          63.9712   87.0802   14.8762 C.ar    1  UNL1        0.0381
     23 C          64.2346   88.0991   13.8074 C.ar    1  UNL1        0.0208
     24 H          62.6656   86.7363   18.0419 H       1  UNL1        0.2922
     25 C          62.5823   88.0466    9.7917 C.3     1  UNL1        0.1220
     26 C          62.5783   86.6646   10.3749 C.ar    1  UNL1        0.0169
     27 C          62.9756   85.4920    9.5281 C.ar    1  UNL1        0.0005
     28 C          62.9716   84.1101   10.1114 C.ar    1  UNL1        0.0204
     29 C          62.5702   83.9007   11.5414 C.ar    1  UNL1        0.0989
     30 N          62.1728   85.0733   12.3881 N.ar    1  UNL1       -0.2426
     31 C          62.1768   86.4552   11.8049 C.ar    1  UNL1        0.0962
     32 C          60.1145   88.8717    8.2986 C.3     1  UNL1        0.1116
     33 C          59.7861   89.7231    7.1081 C.ar    1  UNL1       -0.0129
     34 C          60.8894   90.3178    6.2841 C.ar    1  UNL1       -0.0007
     35 C          60.5609   91.1692    5.0936 C.ar    1  UNL1        0.0369
     36 C          59.1292   91.4259    4.7271 C.ar    1  UNL1        0.1468
     37 C          58.0259   90.8312    5.5512 C.ar    1  UNL1        0.0369
     38 C          58.3543   89.9798    6.7416 C.ar    1  UNL1       -0.0007
     39 O          58.8008   92.2773    3.5367 O.3     1  UNL1       -0.4045
     40 C          59.8724   93.0992    2.8839 C.3     1  UNL1        0.5753
     41 F          60.9440   93.9211    2.2311 F       1  UNL1       -0.1328
     42 F          59.8350   94.0615    4.0340 F       1  UNL1       -0.1328
     43 F          59.9099   92.1370    1.7338 F       1  UNL1       -0.1328
@<TRIPOS>BOND
     1     5     4    1
     2     5     6    1
     3     6     7   ar
     4     7     8   ar
     5     8     9   ar
     6     9    10   ar
     7    10    11   ar
     8    11    12   ar
     9    12    13   ar
    10    13    14   ar
    11    14    15    2
    12    14    16   ar
    13    16    17    1
    14    17    18   ar
    15    18    19   ar
    16    19    20   ar
    17    20    21    1
    18    20    22   ar
    19    22    23   ar
    20     5     1    1
    21     1    25    1
    22    25    26    1
    23    26    27   ar
    24    27    28   ar
    25    28    29   ar
    26    29    30   ar
    27    30    31   ar
    28     1     2   am
    29     2     3    2
    30     2    32    1
    31    32    33    1
    32    33    34   ar
    33    34    35   ar
    34    35    36   ar
    35    36    39    1
    36    39    40    1
    37    40    41    1
    38    40    42    1
    39    40    43    1
    40    36    37   ar
    41    37    38   ar
    42    16     6   ar
    43    23    17   ar
    44    31    26   ar
    45    38    33   ar
    46    13     8   ar
    47    21    24    1
@<TRIPOS>MOLECULE
*****
 43 47 0 0 0
SMALL
GASTEIGER

@<TRIPOS>ATOM
      1 N          63.2217   86.8105   12.9413 N.am    1  UNL1       -0.2699
      2 C          63.0336   85.5978   12.0787 C.2     1  UNL1        0.2306
      3 O          62.0755   85.6391   10.9253 O.2     1  UNL1       -0.2745
      4 C          60.9524   88.0505   12.6918 C.3     1  UNL1        0.0297
      5 C          62.4517   88.0645   12.6505 C.3     1  UNL1        0.1329
      6 C          63.1811   89.3325   12.3184 C.ar    1  UNL1        0.1462
      7 N          64.1873   89.8926   13.2795 N.ar    1  UNL1       -0.2114
      8 C          64.9167   91.1606   12.9475 C.ar    1  UNL1        0.1682
      9 N          65.9229   91.7208   13.9086 N.ar    1  UNL1       -0.2249
     10 C          66.6523   92.9887   13.5765 C.ar    1  UNL1        0.1006
     11 C          66.3754   93.6965   12.2833 C.ar    1  UNL1        0.0209
     12 C          65.3692   93.1364   11.3222 C.ar    1  UNL1        0.0094
     13 C          64.6399   91.8684   11.6543 C.ar    1  UNL1        0.0923
     14 C          63.6336   91.3082   10.6932 C.ar    1  UNL1        0.2685
     15 O          63.3567   92.0161    9.4000 O.2     1  UNL1       -0.2665
     16 N          62.9042   90.0403   11.0253 N.ar    1  UNL1       -0.2612
     17 C          61.8980   89.4801   10.0641 C.ar    1  UNL1        0.0682
     18 C          60.6304   90.2313    9.7829 C.ar    1  UNL1        0.0208
     19 C          59.6242   89.6712    8.8218 C.ar    1  UNL1        0.0381
     20 C          59.8855   88.3599    8.1420 C.ar    1  UNL1        0.1338
     21 O          58.8792   87.7997    7.1809 O.3     1  UNL1       -0.5055
     22 C          61.1530   87.6087    8.4233 C.ar    1  UNL1        0.0381
     23 C          62.1593   88.1688    9.3843 C.ar    1  UNL1        0.0208
     24 H          58.0874   88.2689    7.0052 H       1  UNL1        0.2922
     25 C          64.1798   86.7691   14.0946 C.3     1  UNL1        0.1220
     26 C          63.6628   86.8245   15.5016 C.ar    1  UNL1        0.0169
     27 C          63.4875   88.1484   16.1846 C.ar    1  UNL1        0.0005
     28 C          62.9704   88.2038   17.5916 C.ar    1  UNL1        0.0204
     29 C          62.6286   86.9354   18.3155 C.ar    1  UNL1        0.0989
     30 N          62.8039   85.6115   17.6325 N.ar    1  UNL1       -0.2426
     31 C          63.3209   85.5561   16.2255 C.ar    1  UNL1        0.0962
     32 C          63.8036   84.3438   12.3695 C.3     1  UNL1        0.1116
     33 C          63.0786   83.0970   12.7815 C.ar    1  UNL1       -0.0129
     34 C          62.3963   83.0323   14.1158 C.ar    1  UNL1       -0.0007
     35 C          61.6713   81.7855   14.5278 C.ar    1  UNL1        0.0369
     36 C          61.6285   80.6033   13.6055 C.ar    1  UNL1        0.1468
     37 C          62.3107   80.6680   12.2712 C.ar    1  UNL1        0.0369
     38 C          63.0357   81.9148   11.8592 C.ar    1  UNL1       -0.0007
     39 O          60.9035   79.3565   14.0175 O.3     1  UNL1       -0.4045
     40 C          59.4528   79.4220   14.3935 C.3     1  UNL1        0.5753
     41 F          58.0022   79.4875   14.7695 F       1  UNL1       -0.1328
     42 F          59.4797   80.9137   14.2375 F       1  UNL1       -0.1328
     43 F          59.4259   77.9304   14.5495 F       1  UNL1       -0.1328
@<TRIPOS>BOND
     1     5     4    1
     2     5     6    1
     3     6     7   ar
     4     7     8   ar
     5     8     9   ar
     6     9    10   ar
     7    10    11   ar
     8    11    12   ar
     9    12    13   ar
    10    13    14   ar
    11    14    15    2
    12    14    16   ar
    13    16    17    1
    14    17    18   ar
    15    18    19   ar
    16    19    20   ar
    17    20    21    1
    18    20    22   ar
    19    22    23   ar
    20     5     1    1
    21     1    25    1
    22    25    26    1
    23    26    27   ar
    24    27    28   ar
    25    28    29   ar
    26    29    30   ar
    27    30    31   ar
    28     1     2   am
    29     2     3    2
    30     2    32    1
    31    32    33    1
    32    33    34   ar
    33    34    35   ar
    34    35    36   ar
    35    36    39    1
    36    39    40    1
    37    40    41    1
    38    40    42    1
    39    40    43    1
    40    36    37   ar
    41    37    38   ar
    42    16     6   ar
    43    23    17   ar
    44    31    26   ar
    45    38    33   ar
    46    13     8   ar
    47    21    24    1
@<TRIPOS>MOLECULE
*****
 43 47 0 0 0
SMALL
GASTEIGER

@<TRIPOS>ATOM
      1 N          63.2065   89.8744   11.8675 N.am    1  UNL1       -0.2699
      2 C          63.3233   91.0118   10.8965 C.2     1  UNL1        0.2306
      3 O          62.2931   91.1882    9.8206 O.2     1  UNL1       -0.2745
      4 C          60.6490   89.4174   11.8430 C.3     1  UNL1        0.0297
      5 C          62.0595   88.9135   11.7625 C.3     1  UNL1        0.1329
      6 C          62.3231   87.4484   11.5770 C.ar    1  UNL1        0.1462
      7 N          63.1295   86.6968   12.5942 N.ar    1  UNL1       -0.2114
      8 C          63.3931   85.2318   12.4087 C.ar    1  UNL1        0.1682
      9 N          64.1995   84.4802   13.4259 N.ar    1  UNL1       -0.2249
     10 C          64.4630   83.0152   13.2404 C.ar    1  UNL1        0.1006
     11 C          63.9202   82.3019   12.0377 C.ar    1  UNL1        0.0209
     12 C          63.1138   83.0536   11.0205 C.ar    1  UNL1        0.0094
     13 C          62.8502   84.5185   11.2060 C.ar    1  UNL1        0.0923
     14 C          62.0438   85.2702   10.1888 C.ar    1  UNL1        0.2685
     15 O          61.5010   84.5569    8.9860 O.2     1  UNL1       -0.2665
     16 N          61.7803   86.7352   10.3743 N.ar    1  UNL1       -0.2612
     17 C          60.9738   87.4869    9.3571 C.ar    1  UNL1        0.0682
     18 C          61.3802   88.8732    8.9535 C.ar    1  UNL1        0.0208
     19 C          60.5738   89.6250    7.9363 C.ar    1  UNL1        0.0381
     20 C          59.3611   88.9903    7.3228 C.ar    1  UNL1        0.1338
     21 O          58.5547   89.7420    6.3055 O.3     1  UNL1       -0.5055
     22 C          58.9547   87.6040    7.7264 C.ar    1  UNL1        0.0381
     23 C          59.7611   86.8523    8.7435 C.ar    1  UNL1        0.0208
     24 H          58.8085   90.6081    6.0534 H       1  UNL1        0.2922
     25 C          64.2366   89.6981   12.9435 C.3     1  UNL1        0.1220
     26 C          63.8383   89.1454   14.2798 C.ar    1  UNL1        0.0169
     27 C          64.3806   87.8236   14.7367 C.ar    1  UNL1        0.0005
     28 C          63.9823   87.2709   16.0730 C.ar    1  UNL1        0.0204
     29 C          63.0416   88.0400   16.9526 C.ar    1  UNL1        0.0989
     30 N          62.4993   89.3618   16.4957 N.ar    1  UNL1       -0.2426
     31 C          62.8976   89.9145   15.1594 C.ar    1  UNL1        0.0962
     32 C          64.4702   91.9728   11.0015 C.3     1  UNL1        0.1116
     33 C          65.2926   92.0250   12.2549 C.ar    1  UNL1       -0.0129
     34 C          66.7699   91.7724   12.1937 C.ar    1  UNL1       -0.0007
     35 C          67.5923   91.8247   13.4471 C.ar    1  UNL1        0.0369
     36 C          66.9373   92.1295   14.7617 C.ar    1  UNL1        0.1468
     37 C          65.4600   92.3821   14.8229 C.ar    1  UNL1        0.0369
     38 C          64.6376   92.3299   13.5695 C.ar    1  UNL1       -0.0007
     39 O          67.7597   92.1817   16.0150 O.3     1  UNL1       -0.4045
     40 C          68.8055   93.2439   16.1821 C.3     1  UNL1        0.5753
     41 F          69.8514   94.3061   16.3493 F       1  UNL1       -0.1328
     42 F          69.7432   92.2288   16.7656 F       1  UNL1       -0.1328
     43 F          67.8678   94.2589   15.5987 F       1  UNL1       -0.1328
@<TRIPOS>BOND
     1     5     4    1
     2     5     6    1
     3     6     7   ar
     4     7     8   ar
     5     8     9   ar
     6     9    10   ar
     7    10    11   ar
     8    11    12   ar
     9    12    13   ar
    10    13    14   ar
    11    14    15    2
    12    14    16   ar
    13    16    17    1
    14    17    18   ar
    15    18    19   ar
    16    19    20   ar
    17    20    21    1
    18    20    22   ar
    19    22    23   ar
    20     5     1    1
    21     1    25    1
    22    25    26    1
    23    26    27   ar
    24    27    28   ar
    25    28    29   ar
    26    29    30   ar
    27    30    31   ar
    28     1     2   am
    29     2     3    2
    30     2    32    1
    31    32    33    1
    32    33    34   ar
    33    34    35   ar
    34    35    36   ar
    35    36    39    1
    36    39    40    1
    37    40    41    1
    38    40    42    1
    39    40    43    1
    40    36    37   ar
    41    37    38   ar
    42    16     6   ar
    43    23    17   ar
    44    31    26   ar
    45    38    33   ar
    46    13     8   ar
    47    21    24    1
@<TRIPOS>MOLECULE
*****
 43 47 0 0 0
SMALL
GASTEIGER

@<TRIPOS>ATOM
      1 N          60.4700   87.9710    9.7152 N.am    1  UNL1       -0.2699
      2 C          60.2180   89.0988    8.7589 C.2     1  UNL1        0.2306
      3 O          60.5733   90.5038    9.1458 O.2     1  UNL1       -0.2745
      4 C          60.9025   89.5941   11.6973 C.3     1  UNL1        0.0297
      5 C          61.0772   88.2482   11.0585 C.3     1  UNL1        0.1329
      6 C          61.8592   87.1794   11.7631 C.ar    1  UNL1        0.1462
      7 N          61.4122   85.7496   11.6870 N.ar    1  UNL1       -0.2114
      8 C          62.1942   84.6808   12.3915 C.ar    1  UNL1        0.1682
      9 N          61.7473   83.2510   12.3155 N.ar    1  UNL1       -0.2249
     10 C          62.5293   82.1824   13.0200 C.ar    1  UNL1        0.1006
     11 C          63.7582   82.5435   13.8006 C.ar    1  UNL1        0.0209
     12 C          64.2052   83.9733   13.8767 C.ar    1  UNL1        0.0094
     13 C          63.4232   85.0420   13.1721 C.ar    1  UNL1        0.0923
     14 C          63.8701   86.4719   13.2482 C.ar    1  UNL1        0.2685
     15 O          65.0990   86.8330   14.0288 O.2     1  UNL1       -0.2665
     16 N          63.0881   87.5406   12.5437 N.ar    1  UNL1       -0.2612
     17 C          63.5350   88.9705   12.6197 C.ar    1  UNL1        0.0682
     18 C          63.9497   89.5576   13.9363 C.ar    1  UNL1        0.0208
     19 C          64.3966   90.9874   14.0124 C.ar    1  UNL1        0.0381
     20 C          64.4288   91.8301   12.7719 C.ar    1  UNL1        0.1338
     21 O          64.8758   93.2600   12.8479 O.3     1  UNL1       -0.5055
     22 C          64.0142   91.2430   11.4553 C.ar    1  UNL1        0.0381
     23 C          63.5673   89.8132   11.3792 C.ar    1  UNL1        0.0208
     24 H          65.1348   93.6268   13.6703 H       1  UNL1        0.2922
     25 C          60.1147   86.5660    9.3283 C.3     1  UNL1        0.1220
     26 C          60.9251   85.8458    8.2917 C.ar    1  UNL1        0.0169
     27 C          62.4079   85.7015    8.4661 C.ar    1  UNL1        0.0005
     28 C          63.2184   84.9813    7.4295 C.ar    1  UNL1        0.0204
     29 C          62.5461   84.4054    6.2186 C.ar    1  UNL1        0.0989
     30 N          61.0633   84.5497    6.0443 N.ar    1  UNL1       -0.2426
     31 C          60.2528   85.2699    7.0809 C.ar    1  UNL1        0.0962
     32 C          59.6108   88.8216    7.4156 C.3     1  UNL1        0.1116
     33 C          59.5560   89.9048    6.3794 C.ar    1  UNL1       -0.0129
     34 C          60.8118   90.3447    5.6870 C.ar    1  UNL1       -0.0007
     35 C          60.7569   91.4279    4.6508 C.ar    1  UNL1        0.0369
     36 C          59.4462   92.0711    4.3069 C.ar    1  UNL1        0.1468
     37 C          58.1904   91.6312    4.9992 C.ar    1  UNL1        0.0369
     38 C          58.2452   90.5480    6.0354 C.ar    1  UNL1       -0.0007
     39 O          59.3914   93.1542    3.2707 O.3     1  UNL1       -0.4045
     40 C          60.1078   92.9795    1.9644 C.3     1  UNL1        0.5753
     41 F          60.8241   92.8048    0.6582 F       1  UNL1       -0.1328
     42 F          58.7983   92.7177    1.2813 F       1  UNL1       -0.1328
     43 F          61.4172   93.2414    2.6476 F       1  UNL1       -0.1328
@<TRIPOS>BOND
     1     5     4    1
     2     5     6    1
     3     6     7   ar
     4     7     8   ar
     5     8     9   ar
     6     9    10   ar
     7    10    11   ar
     8    11    12   ar
     9    12    13   ar
    10    13    14   ar
    11    14    15    2
    12    14    16   ar
    13    16    17    1
    14    17    18   ar
    15    18    19   ar
    16    19    20   ar
    17    20    21    1
    18    20    22   ar
    19    22    23   ar
    20     5     1    1
    21     1    25    1
    22    25    26    1
    23    26    27   ar
    24    27    28   ar
    25    28    29   ar
    26    29    30   ar
    27    30    31   ar
    28     1     2   am
    29     2     3    2
    30     2    32    1
    31    32    33    1
    32    33    34   ar
    33    34    35   ar
    34    35    36   ar
    35    36    39    1
    36    39    40    1
    37    40    41    1
    38    40    42    1
    39    40    43    1
    40    36    37   ar
    41    37    38   ar
    42    16     6   ar
    43    23    17   ar
    44    31    26   ar
    45    38    33   ar
    46    13     8   ar
    47    21    24    1
@<TRIPOS>MOLECULE
*****
 43 47 0 0 0
SMALL
GASTEIGER

@<TRIPOS>ATOM
      1 N          62.2844   88.3085   11.1942 N.am    1  UNL1       -0.2699
      2 C          62.3905   89.6857   11.7793 C.2     1  UNL1        0.2306
      3 O          61.7560   89.9885   13.1043 O.2     1  UNL1       -0.2745
      4 C          60.1124   87.4458   12.3291 C.3     1  UNL1        0.0297
      5 C          61.5439   87.2342   11.9342 C.3     1  UNL1        0.1329
      6 C          62.2350   85.9483   12.2793 C.ar    1  UNL1        0.1462
      7 N          62.0708   84.7479   11.3950 N.ar    1  UNL1       -0.2114
      8 C          62.7619   83.4620   11.7401 C.ar    1  UNL1        0.1682
      9 N          62.5978   82.2616   10.8558 N.ar    1  UNL1       -0.2249
     10 C          63.2888   80.9758   11.2009 C.ar    1  UNL1        0.1006
     11 C          64.1440   80.8904   12.4303 C.ar    1  UNL1        0.0209
     12 C          64.3081   82.0909   13.3146 C.ar    1  UNL1        0.0094
     13 C          63.6171   83.3767   12.9695 C.ar    1  UNL1        0.0923
     14 C          63.7812   84.5772   13.8538 C.ar    1  UNL1        0.2685
     15 O          64.6364   84.4918   15.0832 O.2     1  UNL1       -0.2665
     16 N          63.0901   85.8630   13.5087 N.ar    1  UNL1       -0.2612
     17 C          63.2543   87.0635   14.3930 C.ar    1  UNL1        0.0682
     18 C          64.2602   88.1201   14.0441 C.ar    1  UNL1        0.0208
     19 C          64.4243   89.3206   14.9283 C.ar    1  UNL1        0.0381
     20 C          63.5825   89.4644   16.1614 C.ar    1  UNL1        0.1338
     21 O          63.7466   90.6649   17.0457 O.3     1  UNL1       -0.5055
     22 C          62.5766   88.4078   16.5103 C.ar    1  UNL1        0.0381
     23 C          62.4125   87.2073   15.6261 C.ar    1  UNL1        0.0208
     24 H          64.3750   91.3250   16.8278 H       1  UNL1        0.2922
     25 C          62.9189   88.0057    9.8692 C.3     1  UNL1        0.1220
     26 C          62.2788   87.0179    8.9394 C.ar    1  UNL1        0.0169
     27 C          63.0854   85.8847    8.3781 C.ar    1  UNL1        0.0005
     28 C          62.4452   84.8969    7.4482 C.ar    1  UNL1        0.0204
     29 C          60.9985   85.0424    7.0797 C.ar    1  UNL1        0.0989
     30 N          60.1920   86.1756    7.6411 N.ar    1  UNL1       -0.2426
     31 C          60.8321   87.1634    8.5709 C.ar    1  UNL1        0.0962
     32 C          63.1310   90.7599   11.0393 C.3     1  UNL1        0.1116
     33 C          64.2504   91.4983   11.7113 C.ar    1  UNL1       -0.0129
     34 C          64.3543   91.5027   13.2077 C.ar    1  UNL1       -0.0007
     35 C          65.4738   92.2412   13.8796 C.ar    1  UNL1        0.0369
     36 C          66.4893   92.9753   13.0552 C.ar    1  UNL1        0.1468
     37 C          66.3855   92.9709   11.5588 C.ar    1  UNL1        0.0369
     38 C          65.2660   92.2325   10.8868 C.ar    1  UNL1       -0.0007
     39 O          67.6088   93.7137   13.7271 O.3     1  UNL1       -0.4045
     40 C          68.3476   93.0791   14.8679 C.3     1  UNL1        0.5753
     41 F          69.0864   92.4445   16.0087 F       1  UNL1       -0.1328
     42 F          67.9383   94.2112   15.7628 F       1  UNL1       -0.1328
     43 F          68.7568   91.9469   13.9731 F       1  UNL1       -0.1328
@<TRIPOS>BOND
     1     5     4    1
     2     5     6    1
     3     6     7   ar
     4     7     8   ar
     5     8     9   ar
     6     9    10   ar
     7    10    11   ar
     8    11    12   ar
     9    12    13   ar
    10    13    14   ar
    11    14    15    2
    12    14    16   ar
    13    16    17    1
    14    17    18   ar
    15    18    19   ar
    16    19    20   ar
    17    20    21    1
    18    20    22   ar
    19    22    23   ar
    20     5     1    1
    21     1    25    1
    22    25    26    1
    23    26    27   ar
    24    27    28   ar
    25    28    29   ar
    26    29    30   ar
    27    30    31   ar
    28     1     2   am
    29     2     3    2
    30     2    32    1
    31    32    33    1
    32    33    34   ar
    33    34    35   ar
    34    35    36   ar
    35    36    39    1
    36    39    40    1
    37    40    41    1
    38    40    42    1
    39    40    43    1
    40    36    37   ar
    41    37    38   ar
    42    16     6   ar
    43    23    17   ar
    44    31    26   ar
    45    38    33   ar
    46    13     8   ar
    47    21    24    1
