@<TRIPOS>MOLECULE
*****
 39 44 0 0 0
SMALL
GASTEIGER

@<TRIPOS>ATOM
      1 C          62.9824   89.2428   15.9035 C.3     1  UNL1        0.0553
      2 C          63.7258   90.0757   14.9017 C.ar    1  UNL1        0.0931
      3 N          64.9553   90.8281   15.3167 N.ar    1  UNL1       -0.2465
      4 C          65.6988   91.6610   14.3148 C.ar    1  UNL1        0.0856
      5 C          65.2126   91.7415   12.8981 C.ar    1  UNL1        0.0379
      6 C          63.9831   90.9891   12.4831 C.ar    1  UNL1        0.0411
      7 C          63.2397   90.1563   13.4849 C.ar    1  UNL1        0.1521
      8 C          65.9561   92.5745   11.8962 C.ar    1  UNL1        0.0777
      9 C          67.2776   92.1053   11.3639 C.ar    1  UNL1        0.1176
     10 N          68.0209   92.9382   10.3621 N.ar    1  UNL1       -0.2209
     11 C          67.4427   94.2403    9.8926 C.ar    1  UNL1        0.2006
     12 N          67.9419   95.2676    8.9202 N.ar    1  UNL1       -0.1272
     13 N          66.9288   96.3717    8.8516 N.ar    1  UNL1       -0.1493
     14 C          65.8036   96.0267    9.7816 C.ar    1  UNL1        0.0995
     15 C          64.5762   96.8537   10.0255 C.3     1  UNL1        0.0557
     16 C          66.1212   94.7094   10.4250 C.ar    1  UNL1        0.1101
     17 N          65.3779   93.8765   11.4268 N.ar    1  UNL1       -0.3484
     18 H          64.5105   94.1844   11.7762 H       1  UNL1        0.1661
     19 C          66.9283   92.4134   14.7298 C.ar    1  UNL1        0.0584
     20 C          68.2639   91.8112   15.0513 C.ar    1  UNL1        0.0453
     21 C          69.1992   92.9257   15.4163 C.ar    1  UNL1        0.1798
     22 O          68.4415   94.2168   15.3204 O.2     1  UNL1       -0.4473
     23 C          67.0381   93.9001   14.8961 C.ar    1  UNL1        0.1812
     24 O          62.0102   89.4039   13.0699 O.3     1  UNL1       -0.4728
     25 C          61.7631   89.1124   11.6194 C.3     1  UNL1        0.2211
     26 C          60.3657   88.8713   11.1303 C.3     1  UNL1        0.0995
     27 N          59.3084   88.3992   12.0838 N.3     1  UNL1       -0.3190
     28 H          58.4256   88.2884   11.5849 H       1  UNL1        0.1189
     29 H          59.1933   89.0846   12.8304 H       1  UNL1        0.1189
     30 C          60.0257   89.1022    9.6877 C.3     1  UNL1        0.0472
     31 C          59.9284   87.9398    8.7447 C.2     1  UNL1       -0.0005
     32 C          58.7387   87.5846    7.9029 C.2     1  UNL1        0.0942
     33 N          59.0787   86.3537    7.1159 N.2     1  UNL1       -0.2482
     34 C          60.4785   85.9482    7.4713 C.2     1  UNL1        0.0631
     35 C          61.3427   84.8129    7.0083 C.3     1  UNL1        0.0717
     36 C          62.7321   84.6580    7.5521 C.2     1  UNL1       -0.0198
     37 C          63.2572   85.6383    8.5587 C.2     1  UNL1       -0.0042
     38 C          62.3929   86.7735    9.0217 C.2     1  UNL1        0.0006
     39 C          61.0036   86.9284    8.4780 C.2     1  UNL1        0.0114
@<TRIPOS>BOND
     1     1     2    1
     2     2     3   ar
     3     3     4   ar
     4     4    19    1
     5    19    20   ar
     6    20    21   ar
     7    21    22   ar
     8    22    23   ar
     9     4     5   ar
    10     5     8    1
    11     8     9   ar
    12     9    10   ar
    13    10    11   ar
    14    11    12   ar
    15    12    13   ar
    16    13    14   ar
    17    14    15    1
    18    14    16   ar
    19    16    17   ar
    20     5     6   ar
    21     6     7   ar
    22     7    24    1
    23    24    25    1
    24    25    26    1
    25    26    27    1
    26    26    30    1
    27    30    31    1
    28    31    32    2
    29    32    33    1
    30    33    34    2
    31    34    35    1
    32    35    36    1
    33    36    37    2
    34    37    38    1
    35    38    39    2
    36     7     2   ar
    37    39    31    1
    38    23    19   ar
    39    17     8   ar
    40    39    34    1
    41    16    11    1
    42    17    18    1
    43    27    28    1
    44    27    29    1
@<TRIPOS>MOLECULE
*****
 39 44 0 0 0
SMALL
GASTEIGER

@<TRIPOS>ATOM
      1 C          63.5615   88.3480   15.3739 C.3     1  UNL1        0.0553
      2 C          64.1216   89.4397   14.5112 C.ar    1  UNL1        0.0931
      3 N          65.3129   90.2248   14.9741 N.ar    1  UNL1       -0.2465
      4 C          65.8731   91.3166   14.1113 C.ar    1  UNL1        0.0856
      5 C          65.2419   91.6232   12.7856 C.ar    1  UNL1        0.0379
      6 C          64.0505   90.8381   12.3226 C.ar    1  UNL1        0.0411
      7 C          63.4904   89.7464   13.1854 C.ar    1  UNL1        0.1521
      8 C          65.8020   92.7149   11.9227 C.ar    1  UNL1        0.0777
      9 C          65.4364   94.1448   12.1907 C.ar    1  UNL1        0.1176
     10 N          65.9965   95.2364   11.3279 N.ar    1  UNL1       -0.2209
     11 C          66.9222   94.8983   10.1971 C.ar    1  UNL1        0.2006
     12 N          67.6251   95.7539    9.1852 N.ar    1  UNL1       -0.1272
     13 N          68.4251   94.8529    8.2919 N.ar    1  UNL1       -0.1493
     14 C          68.2166   93.4404    8.7516 C.ar    1  UNL1        0.0995
     15 C          68.8294   92.2149    8.1411 C.3     1  UNL1        0.0557
     16 C          67.2878   93.4684    9.9291 C.ar    1  UNL1        0.1101
     17 N          66.7277   92.3768   10.7919 N.ar    1  UNL1       -0.3484
     18 H          66.9676   91.4383   10.6161 H       1  UNL1        0.1661
     19 C          67.0644   92.1017   14.5742 C.ar    1  UNL1        0.0584
     20 C          67.0783   93.1109   15.6838 C.ar    1  UNL1        0.0453
     21 C          68.4735   93.6484   15.8042 C.ar    1  UNL1        0.1798
     22 O          69.3220   92.9713   14.7690 O.2     1  UNL1       -0.4473
     23 C          68.4511   92.0154   14.0088 C.ar    1  UNL1        0.1812
     24 O          62.2990   88.9613   12.7224 O.3     1  UNL1       -0.4728
     25 C          62.3984   88.0988   11.4993 C.3     1  UNL1        0.2211
     26 C          62.3903   86.6047   11.6324 C.3     1  UNL1        0.0995
     27 N          61.4156   85.7863   10.8387 N.3     1  UNL1       -0.3190
     28 H          61.5495   84.7977   11.0511 H       1  UNL1        0.1189
     29 H          61.5706   85.9442    9.8430 H       1  UNL1        0.1189
     30 C          63.3571   85.9291   12.5592 C.3     1  UNL1        0.0472
     31 C          62.9620   84.6653   13.2639 C.2     1  UNL1       -0.0005
     32 C          62.5061   84.5558   14.6888 C.2     1  UNL1        0.0942
     33 N          62.2157   83.1118   14.9729 N.2     1  UNL1       -0.2482
     34 C          62.4920   82.3289   13.7236 C.2     1  UNL1        0.0631
     35 C          62.3833   80.8658   13.4113 C.3     1  UNL1        0.0717
     36 C          62.7357   80.3628   12.0429 C.2     1  UNL1       -0.0198
     37 C          63.1969   81.3229   10.9867 C.2     1  UNL1       -0.0042
     38 C          63.3057   82.7860   11.2989 C.2     1  UNL1        0.0006
     39 C          62.9532   83.2890   12.6674 C.2     1  UNL1        0.0114
@<TRIPOS>BOND
     1     1     2    1
     2     2     3   ar
     3     3     4   ar
     4     4    19    1
     5    19    20   ar
     6    20    21   ar
     7    21    22   ar
     8    22    23   ar
     9     4     5   ar
    10     5     8    1
    11     8     9   ar
    12     9    10   ar
    13    10    11   ar
    14    11    12   ar
    15    12    13   ar
    16    13    14   ar
    17    14    15    1
    18    14    16   ar
    19    16    17   ar
    20     5     6   ar
    21     6     7   ar
    22     7    24    1
    23    24    25    1
    24    25    26    1
    25    26    27    1
    26    26    30    1
    27    30    31    1
    28    31    32    2
    29    32    33    1
    30    33    34    2
    31    34    35    1
    32    35    36    1
    33    36    37    2
    34    37    38    1
    35    38    39    2
    36     7     2   ar
    37    39    31    1
    38    23    19   ar
    39    17     8   ar
    40    39    34    1
    41    16    11    1
    42    17    18    1
    43    27    28    1
    44    27    29    1
@<TRIPOS>MOLECULE
*****
 39 44 0 0 0
SMALL
GASTEIGER

@<TRIPOS>ATOM
      1 C          61.6016   90.6605   10.5044 C.3     1  UNL1        0.0553
      2 C          61.8965   89.1923   10.5910 C.ar    1  UNL1        0.0931
      3 N          61.6428   88.3053    9.4083 N.ar    1  UNL1       -0.2465
      4 C          61.9377   86.8371    9.4949 C.ar    1  UNL1        0.0856
      5 C          62.4863   86.2560   10.7643 C.ar    1  UNL1        0.0379
      6 C          62.7399   87.1430   11.9470 C.ar    1  UNL1        0.0411
      7 C          62.4451   88.6111   11.8604 C.ar    1  UNL1        0.1521
      8 C          62.7812   84.7877   10.8510 C.ar    1  UNL1        0.0777
      9 C          63.6376   84.1320    9.8087 C.ar    1  UNL1        0.1176
     10 N          63.9325   82.6638    9.8954 N.ar    1  UNL1       -0.2209
     11 C          63.3709   81.8515   11.0244 C.ar    1  UNL1        0.2006
     12 N          63.4892   80.3965   11.3698 N.ar    1  UNL1       -0.1272
     13 N          62.7058   80.1531   12.6256 N.ar    1  UNL1       -0.1493
     14 C          62.1034   81.4576   13.0563 C.ar    1  UNL1        0.0995
     15 C          61.2413   81.6744   14.2645 C.3     1  UNL1        0.0557
     16 C          62.5145   82.5072   12.0667 C.ar    1  UNL1        0.1101
     17 N          62.2196   83.9754   11.9800 N.ar    1  UNL1       -0.3484
     18 H          61.6575   84.4058   12.6641 H       1  UNL1        0.1661
     19 C          61.6840   85.9501    8.3122 C.ar    1  UNL1        0.0584
     20 C          62.7275   85.2324    7.5084 C.ar    1  UNL1        0.0453
     21 C          62.0307   84.4638    6.4250 C.ar    1  UNL1        0.1798
     22 O          60.5565   84.7064    6.5593 O.2     1  UNL1       -0.4473
     23 C          60.3423   85.6249    7.7256 C.ar    1  UNL1        0.1812
     24 O          62.6987   89.4981   13.0431 O.3     1  UNL1       -0.4728
     25 C          63.8291   89.1930   13.9807 C.3     1  UNL1        0.2211
     26 C          63.9178   89.8964   15.3026 C.3     1  UNL1        0.0995
     27 N          63.3720   89.2434   16.5378 N.3     1  UNL1       -0.3190
     28 H          63.5160   89.8578   17.3391 H       1  UNL1        0.1189
     29 H          63.8548   88.3589   16.6964 H       1  UNL1        0.1189
     30 C          64.5523   91.2529   15.3893 C.3     1  UNL1        0.0472
     31 C          65.7562   91.5725   14.5536 C.2     1  UNL1       -0.0005
     32 C          67.1803   91.5779   15.0247 C.2     1  UNL1        0.0942
     33 N          68.0517   91.9515   13.8623 N.2     1  UNL1       -0.2482
     34 C          67.1661   92.1770   12.6728 C.2     1  UNL1        0.0631
     35 C          67.4682   92.5655   11.2558 C.3     1  UNL1        0.0717
     36 C          66.3517   92.7196   10.2661 C.2     1  UNL1       -0.0198
     37 C          64.9330   92.4853   10.6933 C.2     1  UNL1       -0.0042
     38 C          64.6309   92.0969   12.1103 C.2     1  UNL1        0.0006
     39 C          65.7474   91.9428   13.1000 C.2     1  UNL1        0.0114
@<TRIPOS>BOND
     1     1     2    1
     2     2     3   ar
     3     3     4   ar
     4     4    19    1
     5    19    20   ar
     6    20    21   ar
     7    21    22   ar
     8    22    23   ar
     9     4     5   ar
    10     5     8    1
    11     8     9   ar
    12     9    10   ar
    13    10    11   ar
    14    11    12   ar
    15    12    13   ar
    16    13    14   ar
    17    14    15    1
    18    14    16   ar
    19    16    17   ar
    20     5     6   ar
    21     6     7   ar
    22     7    24    1
    23    24    25    1
    24    25    26    1
    25    26    27    1
    26    26    30    1
    27    30    31    1
    28    31    32    2
    29    32    33    1
    30    33    34    2
    31    34    35    1
    32    35    36    1
    33    36    37    2
    34    37    38    1
    35    38    39    2
    36     7     2   ar
    37    39    31    1
    38    23    19   ar
    39    17     8   ar
    40    39    34    1
    41    16    11    1
    42    17    18    1
    43    27    28    1
    44    27    29    1
@<TRIPOS>MOLECULE
*****
 39 44 0 0 0
SMALL
GASTEIGER

@<TRIPOS>ATOM
      1 C          65.2565   93.3198    9.7918 C.3     1  UNL1        0.0553
      2 C          64.9162   92.5011   11.0017 C.ar    1  UNL1        0.0931
      3 N          65.7109   92.6618   12.2637 N.ar    1  UNL1       -0.2465
      4 C          65.3706   91.8431   13.4737 C.ar    1  UNL1        0.0856
      5 C          64.2356   90.8637   13.4216 C.ar    1  UNL1        0.0379
      6 C          63.4409   90.7031   12.1596 C.ar    1  UNL1        0.0411
      7 C          63.7812   91.5218   10.9497 C.ar    1  UNL1        0.1521
      8 C          63.8953   90.0450   14.6315 C.ar    1  UNL1        0.0777
      9 C          63.4192   90.7195   15.8838 C.ar    1  UNL1        0.1176
     10 N          63.0789   89.9008   17.0937 N.ar    1  UNL1       -0.2209
     11 C          63.2147   88.4075   17.0513 C.ar    1  UNL1        0.2006
     12 N          62.9553   87.3465   18.0794 N.ar    1  UNL1       -0.1272
     13 N          63.2711   86.0162   17.4624 N.ar    1  UNL1       -0.1493
     14 C          63.7257   86.2551   16.0531 C.ar    1  UNL1        0.0995
     15 C          64.1421   85.2012   15.0703 C.3     1  UNL1        0.0557
     16 C          63.6909   87.7330   15.7990 C.ar    1  UNL1        0.1101
     17 N          64.0312   88.5518   14.5891 N.ar    1  UNL1       -0.3484
     18 H          64.3437   88.1091   13.7672 H       1  UNL1        0.1661
     19 C          66.1653   92.0037   14.7357 C.ar    1  UNL1        0.0584
     20 C          67.5744   91.5390   14.9554 C.ar    1  UNL1        0.0453
     21 C          67.9704   91.9053   16.3551 C.ar    1  UNL1        0.1798
     22 O          66.8060   92.5965   17.0004 O.2     1  UNL1       -0.4473
     23 C          65.6904   92.6572   15.9995 C.ar    1  UNL1        0.1812
     24 O          62.9865   91.3611    9.6877 O.3     1  UNL1       -0.4728
     25 C          62.2238   90.0940    9.4378 C.3     1  UNL1        0.2211
     26 C          60.9128   89.8592   10.1279 C.3     1  UNL1        0.0995
     27 N          60.0919   91.0245   10.5950 N.3     1  UNL1       -0.3190
     28 H          59.2392   90.6835   11.0388 H       1  UNL1        0.1189
     29 H          59.8486   91.6108    9.7967 H       1  UNL1        0.1189
     30 C          60.4226   88.4591   10.3507 C.3     1  UNL1        0.0472
     31 C          60.1701   87.5575    9.1789 C.2     1  UNL1       -0.0005
     32 C          58.9050   87.4888    8.3758 C.2     1  UNL1        0.0942
     33 N          59.0914   86.4550    7.3049 N.2     1  UNL1       -0.2482
     34 C          60.4716   85.8849    7.4462 C.2     1  UNL1        0.0631
     35 C          61.2075   84.8333    6.6699 C.3     1  UNL1        0.0717
     36 C          62.6100   84.4631    7.0517 C.2     1  UNL1       -0.0198
     37 C          63.2767   85.1445    8.2098 C.2     1  UNL1       -0.0042
     38 C          62.5408   86.1960    8.9862 C.2     1  UNL1        0.0006
     39 C          61.1383   86.5662    8.6043 C.2     1  UNL1        0.0114
@<TRIPOS>BOND
     1     1     2    1
     2     2     3   ar
     3     3     4   ar
     4     4    19    1
     5    19    20   ar
     6    20    21   ar
     7    21    22   ar
     8    22    23   ar
     9     4     5   ar
    10     5     8    1
    11     8     9   ar
    12     9    10   ar
    13    10    11   ar
    14    11    12   ar
    15    12    13   ar
    16    13    14   ar
    17    14    15    1
    18    14    16   ar
    19    16    17   ar
    20     5     6   ar
    21     6     7   ar
    22     7    24    1
    23    24    25    1
    24    25    26    1
    25    26    27    1
    26    26    30    1
    27    30    31    1
    28    31    32    2
    29    32    33    1
    30    33    34    2
    31    34    35    1
    32    35    36    1
    33    36    37    2
    34    37    38    1
    35    38    39    2
    36     7     2   ar
    37    39    31    1
    38    23    19   ar
    39    17     8   ar
    40    39    34    1
    41    16    11    1
    42    17    18    1
    43    27    28    1
    44    27    29    1
@<TRIPOS>MOLECULE
*****
 39 44 0 0 0
SMALL
GASTEIGER

@<TRIPOS>ATOM
      1 C          63.1278   86.0676   18.2992 C.3     1  UNL1        0.0553
      2 C          63.1691   85.7904   16.8256 C.ar    1  UNL1        0.0931
      3 N          62.9218   84.4013   16.3165 N.ar    1  UNL1       -0.2465
      4 C          62.9631   84.1241   14.8429 C.ar    1  UNL1        0.0856
      5 C          63.2517   85.2361   13.8784 C.ar    1  UNL1        0.0379
      6 C          63.4990   86.6252   14.3875 C.ar    1  UNL1        0.0411
      7 C          63.4577   86.9024   15.8610 C.ar    1  UNL1        0.1521
      8 C          63.2930   84.9589   12.4048 C.ar    1  UNL1        0.0777
      9 C          64.2610   83.9520   11.8578 C.ar    1  UNL1        0.1176
     10 N          64.3023   83.6749   10.3843 N.ar    1  UNL1       -0.2209
     11 C          63.3756   84.4047    9.4576 C.ar    1  UNL1        0.2006
     12 N          63.1886   84.3420    7.9706 N.ar    1  UNL1       -0.1272
     13 N          62.1050   85.3102    7.5985 N.ar    1  UNL1       -0.1493
     14 C          61.6223   85.9712    8.8556 C.ar    1  UNL1        0.0995
     15 C          60.5437   87.0096    8.9476 C.3     1  UNL1        0.0557
     16 C          62.4076   85.4116   10.0045 C.ar    1  UNL1        0.1101
     17 N          62.3663   85.6887   11.4781 N.ar    1  UNL1       -0.3484
     18 H          61.7310   86.3495   11.8371 H       1  UNL1        0.1661
     19 C          62.7158   82.7350   14.3338 C.ar    1  UNL1        0.0584
     20 C          61.3802   82.0612   14.2232 C.ar    1  UNL1        0.0453
     21 C          61.5997   80.6855   13.6670 C.ar    1  UNL1        0.1798
     22 O          63.0709   80.5091   13.4338 O.2     1  UNL1       -0.4473
     23 C          63.7607   81.7757   13.8459 C.ar    1  UNL1        0.1812
     24 O          63.7050   88.2915   16.3701 O.3     1  UNL1       -0.4728
     25 C          63.2305   89.4752   15.5804 C.3     1  UNL1        0.2211
     26 C          64.0068   90.7584   15.6127 C.3     1  UNL1        0.0995
     27 N          63.6201   91.8449   16.5718 N.3     1  UNL1       -0.3190
     28 H          64.2503   92.6389   16.4581 H       1  UNL1        0.1189
     29 H          63.6845   91.4938   17.5273 H       1  UNL1        0.1189
     30 C          65.1697   90.9549   14.6859 C.3     1  UNL1        0.0472
     31 C          64.9415   91.4646   13.2938 C.2     1  UNL1       -0.0005
     32 C          65.6329   92.6347   12.6589 C.2     1  UNL1        0.0942
     33 N          65.1004   92.7870   11.2648 N.2     1  UNL1       -0.2482
     34 C          64.0801   91.7111   11.0381 C.2     1  UNL1        0.0631
     35 C          63.2277   91.3700    9.8519 C.3     1  UNL1        0.0717
     36 C          62.2772   90.2117    9.9197 C.2     1  UNL1       -0.0198
     37 C          62.1790   89.3944   11.1736 C.2     1  UNL1       -0.0042
     38 C          63.0313   89.7355   12.3599 C.2     1  UNL1        0.0006
     39 C          63.9819   90.8939   12.2921 C.2     1  UNL1        0.0114
@<TRIPOS>BOND
     1     1     2    1
     2     2     3   ar
     3     3     4   ar
     4     4    19    1
     5    19    20   ar
     6    20    21   ar
     7    21    22   ar
     8    22    23   ar
     9     4     5   ar
    10     5     8    1
    11     8     9   ar
    12     9    10   ar
    13    10    11   ar
    14    11    12   ar
    15    12    13   ar
    16    13    14   ar
    17    14    15    1
    18    14    16   ar
    19    16    17   ar
    20     5     6   ar
    21     6     7   ar
    22     7    24    1
    23    24    25    1
    24    25    26    1
    25    26    27    1
    26    26    30    1
    27    30    31    1
    28    31    32    2
    29    32    33    1
    30    33    34    2
    31    34    35    1
    32    35    36    1
    33    36    37    2
    34    37    38    1
    35    38    39    2
    36     7     2   ar
    37    39    31    1
    38    23    19   ar
    39    17     8   ar
    40    39    34    1
    41    16    11    1
    42    17    18    1
    43    27    28    1
    44    27    29    1
@<TRIPOS>MOLECULE
*****
 39 44 0 0 0
SMALL
GASTEIGER

@<TRIPOS>ATOM
      1 C          62.7749   91.5757   10.3383 C.3     1  UNL1        0.0553
      2 C          62.7620   90.1181   10.6924 C.ar    1  UNL1        0.0931
      3 N          62.3685   89.0999    9.6637 N.ar    1  UNL1       -0.2465
      4 C          62.3556   87.6423   10.0178 C.ar    1  UNL1        0.0856
      5 C          62.7363   87.2030   11.4005 C.ar    1  UNL1        0.0379
      6 C          63.1299   88.2213   12.4292 C.ar    1  UNL1        0.0411
      7 C          63.1428   89.6788   12.0752 C.ar    1  UNL1        0.1521
      8 C          62.7235   85.7454   11.7546 C.ar    1  UNL1        0.0777
      9 C          62.7648   84.7098   10.6704 C.ar    1  UNL1        0.1176
     10 N          62.7520   83.2523   11.0245 N.ar    1  UNL1       -0.2209
     11 C          62.6978   82.8304   12.4629 C.ar    1  UNL1        0.2006
     12 N          62.6737   81.4783   13.1121 N.ar    1  UNL1       -0.1272
     13 N          62.6175   81.6784   14.5976 N.ar    1  UNL1       -0.1493
     14 C          62.6068   83.1540   14.8665 C.ar    1  UNL1        0.0995
     15 C          62.5556   83.8037   16.2176 C.3     1  UNL1        0.0557
     16 C          62.6564   83.8660   13.5472 C.ar    1  UNL1        0.1101
     17 N          62.6693   85.3235   13.1931 N.ar    1  UNL1       -0.3484
     18 H          62.6421   86.0032   13.9047 H       1  UNL1        0.1661
     19 C          61.9620   86.6240    8.9891 C.ar    1  UNL1        0.0584
     20 C          62.8998   85.7543    8.2055 C.ar    1  UNL1        0.0453
     21 C          62.0789   84.8894    7.2955 C.ar    1  UNL1        0.1798
     22 O          60.6337   85.2247    7.5166 O.2     1  UNL1       -0.4473
     23 C          60.5614   86.2967    8.5633 C.ar    1  UNL1        0.1812
     24 O          63.5364   90.6970   13.1039 O.3     1  UNL1       -0.4728
     25 C          64.7148   90.4443   13.9969 C.3     1  UNL1        0.2211
     26 C          65.6411   91.5691   14.3528 C.3     1  UNL1        0.0995
     27 N          65.3859   92.3906   15.5816 N.3     1  UNL1       -0.3190
     28 H          66.1082   93.1054   15.6688 H       1  UNL1        0.1189
     29 H          65.4038   91.7871   16.4037 H       1  UNL1        0.1189
     30 C          66.8226   91.8726   13.4798 C.3     1  UNL1        0.0472
     31 C          66.7478   92.9853   12.4767 C.2     1  UNL1       -0.0005
     32 C          66.0770   94.3116   12.6795 C.2     1  UNL1        0.0942
     33 N          66.2453   95.1131   11.4228 N.2     1  UNL1       -0.2482
     34 C          67.0201   94.2822   10.4433 C.2     1  UNL1        0.0631
     35 C          67.4829   94.5532    9.0425 C.3     1  UNL1        0.0717
     36 C          68.2563   93.5091    8.2930 C.2     1  UNL1       -0.0198
     37 C          68.5668   92.1941    8.9443 C.2     1  UNL1       -0.0042
     38 C          68.1040   91.9231   10.3452 C.2     1  UNL1        0.0006
     39 C          67.3306   92.9672   11.0947 C.2     1  UNL1        0.0114
@<TRIPOS>BOND
     1     1     2    1
     2     2     3   ar
     3     3     4   ar
     4     4    19    1
     5    19    20   ar
     6    20    21   ar
     7    21    22   ar
     8    22    23   ar
     9     4     5   ar
    10     5     8    1
    11     8     9   ar
    12     9    10   ar
    13    10    11   ar
    14    11    12   ar
    15    12    13   ar
    16    13    14   ar
    17    14    15    1
    18    14    16   ar
    19    16    17   ar
    20     5     6   ar
    21     6     7   ar
    22     7    24    1
    23    24    25    1
    24    25    26    1
    25    26    27    1
    26    26    30    1
    27    30    31    1
    28    31    32    2
    29    32    33    1
    30    33    34    2
    31    34    35    1
    32    35    36    1
    33    36    37    2
    34    37    38    1
    35    38    39    2
    36     7     2   ar
    37    39    31    1
    38    23    19   ar
    39    17     8   ar
    40    39    34    1
    41    16    11    1
    42    17    18    1
    43    27    28    1
    44    27    29    1
@<TRIPOS>MOLECULE
*****
 39 44 0 0 0
SMALL
GASTEIGER

@<TRIPOS>ATOM
      1 C          61.2369   89.3730    9.1218 C.3     1  UNL1        0.0553
      2 C          62.1095   89.8672   10.2372 C.ar    1  UNL1        0.0931
      3 N          63.1693   90.8926    9.9623 N.ar    1  UNL1       -0.2465
      4 C          64.0419   91.3869   11.0778 C.ar    1  UNL1        0.0856
      5 C          63.8548   90.8558   12.4681 C.ar    1  UNL1        0.0379
      6 C          62.7950   89.8304   12.7430 C.ar    1  UNL1        0.0411
      7 C          61.9224   89.3362   11.6276 C.ar    1  UNL1        0.1521
      8 C          64.7274   91.3501   13.5836 C.ar    1  UNL1        0.0777
      9 C          64.1178   91.7323   14.8997 C.ar    1  UNL1        0.1176
     10 N          64.9904   92.2265   16.0151 N.ar    1  UNL1       -0.2209
     11 C          66.4727   92.3386   15.8144 C.ar    1  UNL1        0.2006
     12 N          67.5774   92.7896   16.7235 N.ar    1  UNL1       -0.1272
     13 N          68.8697   92.6862   15.9691 N.ar    1  UNL1       -0.1493
     14 C          68.5638   92.1712   14.5939 C.ar    1  UNL1        0.0995
     15 C          69.5637   91.9159   13.5053 C.3     1  UNL1        0.0557
     16 C          67.0823   91.9564   14.4983 C.ar    1  UNL1        0.1101
     17 N          66.2097   91.4622   13.3829 N.ar    1  UNL1       -0.3484
     18 H          66.6098   91.2113   12.5191 H       1  UNL1        0.1661
     19 C          65.1017   92.4123   10.8030 C.ar    1  UNL1        0.0584
     20 C          66.4347   92.1535   10.1658 C.ar    1  UNL1        0.0453
     21 C          67.1714   93.4578   10.0861 C.ar    1  UNL1        0.1798
     22 O          66.2936   94.5226   10.6740 O.2     1  UNL1       -0.4473
     23 C          65.0144   93.8764   11.1171 C.ar    1  UNL1        0.1812
     24 O          60.8627   88.3108   11.9024 O.3     1  UNL1       -0.4728
     25 C          60.8764   87.0027   11.1685 C.3     1  UNL1        0.2211
     26 C          62.1660   86.2589   10.9854 C.3     1  UNL1        0.0995
     27 N          62.5783   85.7974    9.6191 N.3     1  UNL1       -0.3190
     28 H          63.4738   85.3130    9.6796 H       1  UNL1        0.1189
     29 H          62.6689   86.6036    9.0009 H       1  UNL1        0.1189
     30 C          63.0435   85.9766   12.1689 C.3     1  UNL1        0.0472
     31 C          62.7828   84.7733   13.0257 C.2     1  UNL1       -0.0005
     32 C          62.4252   84.7890   14.4825 C.2     1  UNL1        0.0942
     33 N          62.2554   83.3684   14.9333 N.2     1  UNL1       -0.2482
     34 C          62.5080   82.4748   13.7553 C.2     1  UNL1        0.0631
     35 C          62.4833   80.9827   13.6038 C.3     1  UNL1        0.0717
     36 C          62.7846   80.3589   12.2734 C.2     1  UNL1       -0.0198
     37 C          63.1105   81.2271   11.0945 C.2     1  UNL1       -0.0042
     38 C          63.1352   82.7193   11.2460 C.2     1  UNL1        0.0006
     39 C          62.8339   83.3431   12.5764 C.2     1  UNL1        0.0114
@<TRIPOS>BOND
     1     1     2    1
     2     2     3   ar
     3     3     4   ar
     4     4    19    1
     5    19    20   ar
     6    20    21   ar
     7    21    22   ar
     8    22    23   ar
     9     4     5   ar
    10     5     8    1
    11     8     9   ar
    12     9    10   ar
    13    10    11   ar
    14    11    12   ar
    15    12    13   ar
    16    13    14   ar
    17    14    15    1
    18    14    16   ar
    19    16    17   ar
    20     5     6   ar
    21     6     7   ar
    22     7    24    1
    23    24    25    1
    24    25    26    1
    25    26    27    1
    26    26    30    1
    27    30    31    1
    28    31    32    2
    29    32    33    1
    30    33    34    2
    31    34    35    1
    32    35    36    1
    33    36    37    2
    34    37    38    1
    35    38    39    2
    36     7     2   ar
    37    39    31    1
    38    23    19   ar
    39    17     8   ar
    40    39    34    1
    41    16    11    1
    42    17    18    1
    43    27    28    1
    44    27    29    1
@<TRIPOS>MOLECULE
*****
 39 44 0 0 0
SMALL
GASTEIGER

@<TRIPOS>ATOM
      1 C          60.3536   85.3247    7.6601 C.3     1  UNL1        0.0553
      2 C          60.9757   86.3051    8.6097 C.ar    1  UNL1        0.0931
      3 N          60.1147   87.2962    9.3352 N.ar    1  UNL1       -0.2465
      4 C          60.7369   88.2766   10.2849 C.ar    1  UNL1        0.0856
      5 C          62.2200   88.2660   10.5089 C.ar    1  UNL1        0.0379
      6 C          63.0810   87.2749    9.7833 C.ar    1  UNL1        0.0411
      7 C          62.4589   86.2945    8.8338 C.ar    1  UNL1        0.1521
      8 C          62.8422   89.2464   11.4585 C.ar    1  UNL1        0.0777
      9 C          63.5119   90.4803   10.9304 C.ar    1  UNL1        0.1176
     10 N          64.1341   91.4607   11.8800 N.ar    1  UNL1       -0.2209
     11 C          64.0865   91.2072   13.3577 C.ar    1  UNL1        0.2006
     12 N          64.6090   91.9876   14.5273 N.ar    1  UNL1       -0.1272
     13 N          64.2622   91.2360   15.7782 N.ar    1  UNL1       -0.1493
     14 C          63.5253   89.9911   15.3817 C.ar    1  UNL1        0.0995
     15 C          62.9909   88.9472   16.3169 C.3     1  UNL1        0.0557
     16 C          63.4168   89.9732   13.8857 C.ar    1  UNL1        0.1101
     17 N          62.7946   88.9929   12.9361 N.ar    1  UNL1       -0.3484
     18 H          62.3551   88.1830   13.2827 H       1  UNL1        0.1661
     19 C          59.8759   89.2677   11.0104 C.ar    1  UNL1        0.0584
     20 C          59.7065   90.7151   10.6550 C.ar    1  UNL1        0.0453
     21 C          58.7590   91.3274   11.6437 C.ar    1  UNL1        0.1798
     22 O          58.3429   90.2584   12.6101 O.2     1  UNL1       -0.4473
     23 C          59.0332   88.9855   12.2187 C.ar    1  UNL1        0.1812
     24 O          63.3199   85.3034    8.1082 O.3     1  UNL1       -0.4728
     25 C          63.3874   83.8812    8.5803 C.3     1  UNL1        0.2211
     26 C          63.5978   83.5831   10.0353 C.3     1  UNL1        0.0995
     27 N          64.9614   83.2070   10.5343 N.3     1  UNL1       -0.3190
     28 H          64.9215   83.0403   11.5398 H       1  UNL1        0.1189
     29 H          65.6153   83.9656   10.3411 H       1  UNL1        0.1189
     30 C          62.4445   83.6612   10.9913 C.3     1  UNL1        0.0472
     31 C          62.6404   83.3001   12.4339 C.2     1  UNL1       -0.0005
     32 C          62.2921   81.9866   13.0692 C.2     1  UNL1        0.0942
     33 N          62.6555   82.0639   14.5225 N.2     1  UNL1       -0.2482
     34 C          63.2284   83.4250   14.7854 C.2     1  UNL1        0.0631
     35 C          63.7573   84.0675   16.0334 C.3     1  UNL1        0.0717
     36 C          64.2769   85.4739   15.9906 C.2     1  UNL1       -0.0198
     37 C          64.2676   86.2379   14.6997 C.2     1  UNL1       -0.0042
     38 C          63.7387   85.5955   13.4518 C.2     1  UNL1        0.0006
     39 C          63.2191   84.1890   13.4946 C.2     1  UNL1        0.0114
@<TRIPOS>BOND
     1     1     2    1
     2     2     3   ar
     3     3     4   ar
     4     4    19    1
     5    19    20   ar
     6    20    21   ar
     7    21    22   ar
     8    22    23   ar
     9     4     5   ar
    10     5     8    1
    11     8     9   ar
    12     9    10   ar
    13    10    11   ar
    14    11    12   ar
    15    12    13   ar
    16    13    14   ar
    17    14    15    1
    18    14    16   ar
    19    16    17   ar
    20     5     6   ar
    21     6     7   ar
    22     7    24    1
    23    24    25    1
    24    25    26    1
    25    26    27    1
    26    26    30    1
    27    30    31    1
    28    31    32    2
    29    32    33    1
    30    33    34    2
    31    34    35    1
    32    35    36    1
    33    36    37    2
    34    37    38    1
    35    38    39    2
    36     7     2   ar
    37    39    31    1
    38    23    19   ar
    39    17     8   ar
    40    39    34    1
    41    16    11    1
    42    17    18    1
    43    27    28    1
    44    27    29    1
@<TRIPOS>MOLECULE
*****
 39 44 0 0 0
SMALL
GASTEIGER

@<TRIPOS>ATOM
      1 C          62.8638   85.0580    7.7142 C.3     1  UNL1        0.0553
      2 C          62.7977   85.1153    9.2116 C.ar    1  UNL1        0.0931
      3 N          63.0504   83.8782   10.0214 N.ar    1  UNL1       -0.2465
      4 C          62.9843   83.9356   11.5189 C.ar    1  UNL1        0.0856
      5 C          62.6655   85.2300   12.2065 C.ar    1  UNL1        0.0379
      6 C          62.4129   86.4671   11.3967 C.ar    1  UNL1        0.0411
      7 C          62.4790   86.4098    9.8993 C.ar    1  UNL1        0.1521
      8 C          62.5994   85.2874   13.7040 C.ar    1  UNL1        0.0777
      9 C          62.2353   84.0604   14.4862 C.ar    1  UNL1        0.1176
     10 N          62.1692   84.1178   15.9836 N.ar    1  UNL1       -0.2209
     11 C          62.4673   85.4022   16.6988 C.ar    1  UNL1        0.2006
     12 N          62.4821   85.7598   18.1556 N.ar    1  UNL1       -0.1272
     13 N          62.8554   87.2078   18.2736 N.ar    1  UNL1       -0.1493
     14 C          63.0713   87.7451   16.8899 C.ar    1  UNL1        0.0995
     15 C          63.4590   89.1514   16.5406 C.3     1  UNL1        0.0557
     16 C          62.8314   86.6292   15.9166 C.ar    1  UNL1        0.1101
     17 N          62.8975   86.5718   14.4192 N.ar    1  UNL1       -0.3484
     18 H          63.1365   87.3771   13.9058 H       1  UNL1        0.1661
     19 C          63.2369   82.6985   12.3287 C.ar    1  UNL1        0.0584
     20 C          62.2431   81.6108   12.6103 C.ar    1  UNL1        0.0453
     21 C          62.9197   80.5720   13.4547 C.ar    1  UNL1        0.1798
     22 O          64.3317   81.0176   13.6950 O.2     1  UNL1       -0.4473
     23 C          64.5277   82.3319   12.9991 C.ar    1  UNL1        0.1812
     24 O          62.2263   87.6469    9.0895 O.3     1  UNL1       -0.4728
     25 C          61.0159   88.4890    9.3644 C.3     1  UNL1        0.2211
     26 C          61.1761   89.8778    9.9079 C.3     1  UNL1        0.0995
     27 N          59.9728   90.6478   10.3650 N.3     1  UNL1       -0.3190
     28 H          60.2641   91.5654   10.7018 H       1  UNL1        0.1189
     29 H          59.5104   90.1399   11.1191 H       1  UNL1        0.1189
     30 C          62.5399   90.4966    9.9944 C.3     1  UNL1        0.0472
     31 C          63.1947   90.6847   11.3308 C.2     1  UNL1       -0.0005
     32 C          62.8400   89.9612   12.5961 C.2     1  UNL1        0.0942
     33 N          63.7454   90.4586   13.6837 N.2     1  UNL1       -0.2482
     34 C          64.6596   91.4894   13.0907 C.2     1  UNL1        0.0631
     35 C          65.7580   92.3188   13.6869 C.3     1  UNL1        0.0717
     36 C          66.5161   93.2880   12.8290 C.2     1  UNL1       -0.0198
     37 C          66.1758   93.4276   11.3748 C.2     1  UNL1       -0.0042
     38 C          65.0774   92.5982   10.7785 C.2     1  UNL1        0.0006
     39 C          64.3193   91.6291   11.6365 C.2     1  UNL1        0.0114
@<TRIPOS>BOND
     1     1     2    1
     2     2     3   ar
     3     3     4   ar
     4     4    19    1
     5    19    20   ar
     6    20    21   ar
     7    21    22   ar
     8    22    23   ar
     9     4     5   ar
    10     5     8    1
    11     8     9   ar
    12     9    10   ar
    13    10    11   ar
    14    11    12   ar
    15    12    13   ar
    16    13    14   ar
    17    14    15    1
    18    14    16   ar
    19    16    17   ar
    20     5     6   ar
    21     6     7   ar
    22     7    24    1
    23    24    25    1
    24    25    26    1
    25    26    27    1
    26    26    30    1
    27    30    31    1
    28    31    32    2
    29    32    33    1
    30    33    34    2
    31    34    35    1
    32    35    36    1
    33    36    37    2
    34    37    38    1
    35    38    39    2
    36     7     2   ar
    37    39    31    1
    38    23    19   ar
    39    17     8   ar
    40    39    34    1
    41    16    11    1
    42    17    18    1
    43    27    28    1
    44    27    29    1
