@<TRIPOS>MOLECULE
*****
 54 60 0 0 0
SMALL
GASTEIGER

@<TRIPOS>ATOM
      1 C          62.5932   83.6296   13.0780 C.ar    1  UNL1        0.1090
      2 C          61.6340   82.4767   13.1012 C.ar    1  UNL1        0.0405
      3 C          61.6906   81.4763   14.2175 C.ar    1  UNL1        0.1596
      4 F          60.7313   80.3233   14.2406 F       1  UNL1       -0.2025
      5 C          62.7064   81.6288   15.3105 C.ar    1  UNL1        0.1316
      6 N          63.6658   82.7818   15.2873 N.ar    1  UNL1       -0.2073
      7 C          63.6092   83.7822   14.1711 C.ar    1  UNL1        0.2341
      8 N          61.5512   85.7597   12.0163 N.am    1  UNL1       -0.3024
      9 C          62.5366   84.6300   11.9618 C.2     1  UNL1        0.2504
     10 O          63.4654   84.5008   10.7910 O.2     1  UNL1       -0.2700
     11 H          60.9416   85.8445   12.7848 H       1  UNL1        0.1497
     12 C          61.3814   88.7609    8.6676 C.3     1  UNL1        0.0720
     13 C          62.0302   89.1261    9.9699 C.3     1  UNL1        0.0213
     14 C          62.0868   88.1257   11.0861 C.3     1  UNL1        0.0213
     15 C          61.4946   86.7601   10.9001 C.3     1  UNL1        0.0720
     16 C          60.8458   86.3950    9.5979 C.3     1  UNL1        0.0213
     17 C          60.7892   87.3954    8.4817 C.3     1  UNL1        0.0213
     18 C          60.2980   89.6182    6.4673 C.2     1  UNL1        0.2651
     19 O          59.3279   88.4746    6.4995 O.2     1  UNL1       -0.2684
     20 N          61.3248   89.7613    7.5514 N.am    1  UNL1       -0.3012
     21 H          61.9615   90.5119    7.5303 H       1  UNL1        0.1497
     22 C          63.0848   92.8526    2.3616 C.3     1  UNL1        0.0504
     23 C          61.5951   92.9385    2.5141 C.ar    1  UNL1        0.0432
     24 C          60.8012   93.8478    1.6237 C.ar    1  UNL1        0.0132
     25 C          59.3114   93.9337    1.7763 C.ar    1  UNL1        0.0043
     26 C          58.6156   93.1104    2.8193 C.ar    1  UNL1        0.0374
     27 C          59.4095   92.2010    3.7096 C.ar    1  UNL1        0.1477
     28 N          59.0030   91.2761    4.8184 N.ar    1  UNL1       -0.2218
     29 C          60.2414   90.6186    5.3511 C.ar    1  UNL1        0.1535
     30 C          61.4134   91.1371    4.5715 C.ar    1  UNL1        0.1050
     31 N          60.8992   92.1151    3.5571 N.ar    1  UNL1       -0.2925
     32 O          64.5684   84.9351   14.1479 O.3     1  UNL1       -0.4360
     33 C          64.2073   86.2248   14.8233 C.ar    1  UNL1        0.1472
     34 C          63.3984   86.2092   16.0864 C.ar    1  UNL1        0.0376
     35 C          63.0373   87.4990   16.7617 C.ar    1  UNL1        0.0031
     36 C          63.4852   88.8043   16.1740 C.ar    1  UNL1        0.0002
     37 C          64.2941   88.8200   14.9109 C.ar    1  UNL1        0.0030
     38 C          64.6551   87.5303   14.2355 C.ar    1  UNL1        0.0376
     39 C          64.7419   90.1254   14.3232 C.ar    1  UNL1        0.0001
     40 C          64.0502   90.6798   13.1132 C.ar    1  UNL1       -0.0003
     41 C          64.4981   91.9851   12.5255 C.ar    1  UNL1       -0.0029
     42 C          65.6376   92.7362   13.1479 C.ar    1  UNL1       -0.0061
     43 C          66.3293   92.1819   14.3580 C.ar    1  UNL1       -0.0029
     44 C          65.8814   90.8765   14.9456 C.ar    1  UNL1       -0.0003
     45 C          66.0854   94.0416   12.5602 C.3     1  UNL1        0.0992
     46 N          66.7032   94.0764   11.1939 N.3     1  UNL1       -0.2666
     47 C          67.3877   92.8579   10.6490 C.3     1  UNL1        0.0882
     48 C          68.0055   92.8926    9.2826 C.3     1  UNL1        0.0702
     49 C          68.6899   91.6741    8.7378 C.3     1  UNL1        0.0186
     50 N          67.9389   94.1458    8.4610 N.3     1  UNL1       -0.2974
     51 C          67.2545   95.3643    9.0058 C.3     1  UNL1        0.0702
     52 C          67.1878   96.6175    8.1843 C.3     1  UNL1        0.0186
     53 C          66.6366   95.3296   10.3723 C.3     1  UNL1        0.0882
     54 H          67.4617   93.9036    7.5926 H       1  UNL1        0.1232
@<TRIPOS>BOND
     1    22    23    1
     2    23    24   ar
     3    24    25   ar
     4    25    26   ar
     5    26    27   ar
     6    27    28   ar
     7    28    29   ar
     8    29    18    1
     9    18    19    2
    10    18    20   am
    11    12    20    1
    12    12    13    1
    13    13    14    1
    14    14    15    1
    15    15     8    1
    16     8     9   am
    17     9    10    2
    18     9     1    1
    19     1     2   ar
    20     2     3   ar
    21     3     4    1
    22     3     5   ar
    23     5     6   ar
    24     6     7   ar
    25     7    32    1
    26    32    33    1
    27    33    34   ar
    28    34    35   ar
    29    35    36   ar
    30    36    37   ar
    31    37    39    1
    32    39    40   ar
    33    40    41   ar
    34    41    42   ar
    35    42    45    1
    36    45    46    1
    37    46    47    1
    38    47    48    1
    39    48    49    1
    40    48    50    1
    41    50    51    1
    42    51    52    1
    43    51    53    1
    44    42    43   ar
    45    43    44   ar
    46    37    38   ar
    47    15    16    1
    48    16    17    1
    49    29    30   ar
    50    30    31   ar
    51    31    23   ar
    52    31    27   ar
    53    17    12    1
    54     7     1   ar
    55    38    33   ar
    56    44    39   ar
    57    53    46    1
    58    20    21    1
    59     8    11    1
    60    50    54    1
@<TRIPOS>MOLECULE
*****
 54 60 0 0 0
SMALL
GASTEIGER

@<TRIPOS>ATOM
      1 C          62.3834   84.2961   10.5034 C.ar    1  UNL1        0.1090
      2 C          62.8348   82.9533   10.0105 C.ar    1  UNL1        0.0405
      3 C          63.1544   81.8633   10.9901 C.ar    1  UNL1        0.1596
      4 F          63.6058   80.5204   10.4971 F       1  UNL1       -0.2025
      5 C          63.0226   82.1161   12.4628 C.ar    1  UNL1        0.1316
      6 N          62.5712   83.4590   12.9558 N.ar    1  UNL1       -0.2073
      7 C          62.2516   84.5490   11.9761 C.ar    1  UNL1        0.2341
      8 N          60.7736   86.1426    9.6380 N.am    1  UNL1       -0.3024
      9 C          62.0639   85.3861    9.5237 C.2     1  UNL1        0.2504
     10 O          63.0345   85.7196    8.4299 O.2     1  UNL1       -0.2700
     11 H          60.1365   85.9237   10.3559 H       1  UNL1        0.1497
     12 C          59.8149   89.4126    6.6989 C.3     1  UNL1        0.0720
     13 C          59.4788   87.9878    6.3717 C.3     1  UNL1        0.0213
     14 C          59.7983   86.8978    7.3513 C.3     1  UNL1        0.0213
     15 C          60.4540   87.2326    8.6583 C.3     1  UNL1        0.0720
     16 C          60.7901   88.6574    8.9855 C.3     1  UNL1        0.0213
     17 C          60.4705   89.7474    8.0058 C.3     1  UNL1        0.0213
     18 C          60.5617   91.0223    4.8013 C.2     1  UNL1        0.2651
     19 O          61.9476   90.4520    4.8630 O.2     1  UNL1       -0.2684
     20 N          59.4953   90.5026    5.7193 N.am    1  UNL1       -0.3012
     21 H          58.5856   90.8769    5.6788 H       1  UNL1        0.1497
     22 C          58.4405   92.6894   -0.4719 C.3     1  UNL1        0.0504
     23 C          58.9571   93.7115    0.4969 C.ar    1  UNL1        0.0432
     24 C          58.9386   95.1665    0.1329 C.ar    1  UNL1        0.0132
     25 C          59.4551   96.1886    1.1016 C.ar    1  UNL1        0.0043
     26 C          59.9901   95.7558    2.4344 C.ar    1  UNL1        0.0374
     27 C          60.0086   94.3008    2.7984 C.ar    1  UNL1        0.1477
     28 N          60.4721   93.5799    4.0295 N.ar    1  UNL1       -0.2218
     29 C          60.2421   92.1123    3.8216 C.ar    1  UNL1        0.1535
     30 C          59.6364   91.9261    2.4621 C.ar    1  UNL1        0.1050
     31 N          59.4921   93.2786    1.8297 N.ar    1  UNL1       -0.2925
     32 O          61.8003   85.8918   12.4691 O.3     1  UNL1       -0.4360
     33 C          62.6700   86.6786   13.4041 C.ar    1  UNL1        0.1472
     34 C          62.9922   86.1354   14.7647 C.ar    1  UNL1        0.0376
     35 C          63.8620   86.9223   15.6998 C.ar    1  UNL1        0.0031
     36 C          64.4096   88.2523   15.2742 C.ar    1  UNL1        0.0002
     37 C          64.0875   88.7955   13.9137 C.ar    1  UNL1        0.0030
     38 C          63.2177   88.0087   12.9786 C.ar    1  UNL1        0.0376
     39 C          64.6352   90.1256   13.4882 C.ar    1  UNL1        0.0001
     40 C          65.7204   90.7811   14.2898 C.ar    1  UNL1       -0.0003
     41 C          66.2680   92.1111   13.8643 C.ar    1  UNL1       -0.0029
     42 C          65.7304   92.7857   12.6372 C.ar    1  UNL1       -0.0061
     43 C          64.6452   92.1303   11.8355 C.ar    1  UNL1       -0.0029
     44 C          64.0976   90.8003   12.2610 C.ar    1  UNL1       -0.0003
     45 C          66.2781   94.1158   12.2117 C.3     1  UNL1        0.0992
     46 N          66.9063   94.2700   10.8583 N.3     1  UNL1       -0.2666
     47 C          67.8268   93.2084   10.3333 C.3     1  UNL1        0.0882
     48 C          68.4550   93.3627    8.9800 C.3     1  UNL1        0.0702
     49 C          69.3755   92.3011    8.4550 C.3     1  UNL1        0.0186
     50 N          68.1626   94.5786    8.1516 N.3     1  UNL1       -0.2974
     51 C          67.2421   95.6401    8.6765 C.3     1  UNL1        0.0702
     52 C          66.9497   96.8560    7.8482 C.3     1  UNL1        0.0186
     53 C          66.6139   95.4858   10.0300 C.3     1  UNL1        0.0882
     54 H          67.7605   94.2476    7.2745 H       1  UNL1        0.1232
@<TRIPOS>BOND
     1    22    23    1
     2    23    24   ar
     3    24    25   ar
     4    25    26   ar
     5    26    27   ar
     6    27    28   ar
     7    28    29   ar
     8    29    18    1
     9    18    19    2
    10    18    20   am
    11    12    20    1
    12    12    13    1
    13    13    14    1
    14    14    15    1
    15    15     8    1
    16     8     9   am
    17     9    10    2
    18     9     1    1
    19     1     2   ar
    20     2     3   ar
    21     3     4    1
    22     3     5   ar
    23     5     6   ar
    24     6     7   ar
    25     7    32    1
    26    32    33    1
    27    33    34   ar
    28    34    35   ar
    29    35    36   ar
    30    36    37   ar
    31    37    39    1
    32    39    40   ar
    33    40    41   ar
    34    41    42   ar
    35    42    45    1
    36    45    46    1
    37    46    47    1
    38    47    48    1
    39    48    49    1
    40    48    50    1
    41    50    51    1
    42    51    52    1
    43    51    53    1
    44    42    43   ar
    45    43    44   ar
    46    37    38   ar
    47    15    16    1
    48    16    17    1
    49    29    30   ar
    50    30    31   ar
    51    31    23   ar
    52    31    27   ar
    53    17    12    1
    54     7     1   ar
    55    38    33   ar
    56    44    39   ar
    57    53    46    1
    58    20    21    1
    59     8    11    1
    60    50    54    1
@<TRIPOS>MOLECULE
*****
 54 60 0 0 0
SMALL
GASTEIGER

@<TRIPOS>ATOM
      1 C          64.7260   96.1234    1.7019 C.ar    1  UNL1        0.1090
      2 C          65.9079   96.2469    0.7865 C.ar    1  UNL1        0.0405
      3 C          65.7058   96.6131   -0.6540 C.ar    1  UNL1        0.1596
      4 F          66.8878   96.7366   -1.5694 F       1  UNL1       -0.2025
      5 C          64.3219   96.8558   -1.1791 C.ar    1  UNL1        0.1316
      6 N          63.1400   96.7324   -0.2638 N.ar    1  UNL1       -0.2073
      7 C          63.3420   96.3662    1.1767 C.ar    1  UNL1        0.2341
      8 N          65.3995   96.7923    4.1204 N.am    1  UNL1       -0.3024
      9 C          64.9281   95.7572    3.1424 C.2     1  UNL1        0.2504
     10 O          64.6588   94.3560    3.6049 O.2     1  UNL1       -0.2700
     11 H          65.5762   97.7120    3.8168 H       1  UNL1        0.1497
     12 C          66.0057   95.6937    8.4419 C.3     1  UNL1        0.0720
     13 C          67.0073   95.2640    7.4112 C.3     1  UNL1        0.0213
     14 C          66.8052   95.6303    5.9707 C.3     1  UNL1        0.0213
     15 C          65.6015   96.4261    5.5609 C.3     1  UNL1        0.0720
     16 C          64.6000   96.8557    6.5916 C.3     1  UNL1        0.0213
     17 C          64.8021   96.4895    8.0321 C.3     1  UNL1        0.0213
     18 C          65.7748   93.9810   10.3818 C.2     1  UNL1        0.2651
     19 O          65.1399   93.0007    9.4407 O.2     1  UNL1       -0.2684
     20 N          66.2077   95.3275    9.8824 N.am    1  UNL1       -0.3012
     21 H          66.6245   95.9709   10.5001 H       1  UNL1        0.1497
     22 C          64.2124   90.7590   15.1001 C.3     1  UNL1        0.0504
     23 C          65.3376   91.7465   15.1933 C.ar    1  UNL1        0.0432
     24 C          66.0752   91.9232   16.4874 C.ar    1  UNL1        0.0132
     25 C          67.2004   92.9107   16.5806 C.ar    1  UNL1        0.0043
     26 C          67.5880   93.7216   15.3798 C.ar    1  UNL1        0.0374
     27 C          66.8504   93.5450   14.0857 C.ar    1  UNL1        0.1477
     28 N          67.0059   94.1984   12.7445 N.ar    1  UNL1       -0.2218
     29 C          65.9769   93.6148   11.8223 C.ar    1  UNL1        0.1535
     30 C          65.1854   92.6006   12.5936 C.ar    1  UNL1        0.1050
     31 N          65.7252   92.5574   13.9924 N.ar    1  UNL1       -0.2925
     32 O          62.1602   96.2427    2.0921 O.3     1  UNL1       -0.4360
     33 C          61.1696   95.1342    1.8925 C.ar    1  UNL1        0.1472
     34 C          60.4235   95.0195    0.5963 C.ar    1  UNL1        0.0376
     35 C          59.4328   93.9109    0.3967 C.ar    1  UNL1        0.0031
     36 C          59.1883   92.9171    1.4933 C.ar    1  UNL1        0.0002
     37 C          59.9344   93.0318    2.7895 C.ar    1  UNL1        0.0030
     38 C          60.9250   94.1403    2.9891 C.ar    1  UNL1        0.0376
     39 C          59.6899   92.0380    3.8861 C.ar    1  UNL1        0.0001
     40 C          58.3043   91.8435    4.4268 C.ar    1  UNL1       -0.0003
     41 C          58.0598   90.8497    5.5234 C.ar    1  UNL1       -0.0029
     42 C          59.2009   90.0504    6.0793 C.ar    1  UNL1       -0.0061
     43 C          60.5864   90.2448    5.5386 C.ar    1  UNL1       -0.0029
     44 C          60.8309   91.2386    4.4420 C.ar    1  UNL1       -0.0003
     45 C          58.9563   89.0565    7.1759 C.3     1  UNL1        0.0992
     46 N          60.0349   88.7626    8.1760 N.3     1  UNL1       -0.2666
     47 C          60.6647   87.4020    8.2218 C.3     1  UNL1        0.0882
     48 C          61.7433   87.1081    9.2219 C.3     1  UNL1        0.0702
     49 C          62.3732   85.7475    9.2677 C.3     1  UNL1        0.0186
     50 N          62.1922   88.1749   10.1762 N.3     1  UNL1       -0.2974
     51 C          61.5624   89.5355   10.1304 C.3     1  UNL1        0.0702
     52 C          62.0111   90.6022   11.0847 C.3     1  UNL1        0.0186
     53 C          60.4837   89.8293    9.1303 C.3     1  UNL1        0.0882
     54 H          63.1915   88.3076   10.0207 H       1  UNL1        0.1232
@<TRIPOS>BOND
     1    22    23    1
     2    23    24   ar
     3    24    25   ar
     4    25    26   ar
     5    26    27   ar
     6    27    28   ar
     7    28    29   ar
     8    29    18    1
     9    18    19    2
    10    18    20   am
    11    12    20    1
    12    12    13    1
    13    13    14    1
    14    14    15    1
    15    15     8    1
    16     8     9   am
    17     9    10    2
    18     9     1    1
    19     1     2   ar
    20     2     3   ar
    21     3     4    1
    22     3     5   ar
    23     5     6   ar
    24     6     7   ar
    25     7    32    1
    26    32    33    1
    27    33    34   ar
    28    34    35   ar
    29    35    36   ar
    30    36    37   ar
    31    37    39    1
    32    39    40   ar
    33    40    41   ar
    34    41    42   ar
    35    42    45    1
    36    45    46    1
    37    46    47    1
    38    47    48    1
    39    48    49    1
    40    48    50    1
    41    50    51    1
    42    51    52    1
    43    51    53    1
    44    42    43   ar
    45    43    44   ar
    46    37    38   ar
    47    15    16    1
    48    16    17    1
    49    29    30   ar
    50    30    31   ar
    51    31    23   ar
    52    31    27   ar
    53    17    12    1
    54     7     1   ar
    55    38    33   ar
    56    44    39   ar
    57    53    46    1
    58    20    21    1
    59     8    11    1
    60    50    54    1
