@<TRIPOS>MOLECULE
*****
 29 31 0 0 0
SMALL
GASTEIGER

@<TRIPOS>ATOM
      1 C          64.1904   89.8898   14.6180 C.ar    1  UNL1        0.0303
      2 C          64.1942   88.5257   13.9942 C.ar    1  UNL1        0.0147
      3 C          63.7175   87.3403   14.7800 C.ar    1  UNL1        0.0505
      4 C          63.2370   87.5190   16.1897 C.ar    1  UNL1        0.0170
      5 C          63.2332   88.8831   16.8135 C.ar    1  UNL1        0.0307
      6 C          63.7099   90.0685   16.0277 C.ar    1  UNL1        0.1383
      7 F          63.7061   91.4326   16.6516 F       1  UNL1       -0.2044
      8 C          63.3359   90.8481   13.1792 C.3     1  UNL1        0.0336
      9 C          64.6671   91.0753   13.8322 C.3     1  UNL1        0.1262
     10 C          65.8327   90.8907   14.7581 C.2     1  UNL1        0.0068
     11 C          67.0127   91.8127   14.6714 C.2     1  UNL1        0.0357
     12 S          67.0271   92.9193   13.6588 S.3     1  UNL1       -0.0536
     13 C          65.8615   93.1038   12.7329 C.2     1  UNL1        0.1526
     14 N          65.8758   94.2104   11.7203 N.pl3   1  UNL1       -0.3378
     15 N          64.6815   92.1819   12.8196 N.2     1  UNL1       -0.2464
     16 H          66.6503   94.8156   11.6634 H       1  UNL1        0.1442
     17 H          65.1108   94.3315   11.1126 H       1  UNL1        0.1442
     18 N          63.7213   85.9762   14.1561 N.am    1  UNL1       -0.2791
     19 C          63.1187   85.7709   12.7979 C.2     1  UNL1        0.2672
     20 O          62.5124   86.9299   12.0635 O.2     1  UNL1       -0.2682
     21 H          64.1193   85.2155   14.6382 H       1  UNL1        0.1552
     22 C          63.1225   84.4069   12.1741 C.ar    1  UNL1        0.1348
     23 C          63.6011   84.2285   10.7637 C.ar    1  UNL1        0.0245
     24 C          63.6048   82.8643   10.1398 C.ar    1  UNL1        0.0135
     25 C          63.1300   81.6786   10.9264 C.ar    1  UNL1        0.0876
     26 C          62.6514   81.8570   12.3367 C.ar    1  UNL1        0.1092
     27 N          62.6477   83.2211   12.9606 N.ar    1  UNL1       -0.2385
     28 C          63.1338   80.3146   10.3025 C.1     1  UNL1        0.1020
     29 N          63.1375   78.9504    9.6786 N.1     1  UNL1       -0.1908
@<TRIPOS>BOND
     1     9     8    1
     2     9     1    1
     3     1     2   ar
     4     2     3   ar
     5     3    18    1
     6    18    19   am
     7    19    20    2
     8    19    22    1
     9    22    23   ar
    10    23    24   ar
    11    24    25   ar
    12    25    28    1
    13    28    29    3
    14    25    26   ar
    15    26    27   ar
    16     3     4   ar
    17     4     5   ar
    18     5     6   ar
    19     6     7    1
    20     9    10    1
    21    10    11    2
    22    11    12    1
    23    12    13    1
    24    13    14    1
    25    13    15    2
    26    15     9    1
    27     6     1   ar
    28    27    22   ar
    29    18    21    1
    30    14    16    1
    31    14    17    1
@<TRIPOS>MOLECULE
*****
 29 31 0 0 0
SMALL
GASTEIGER

@<TRIPOS>ATOM
      1 C          64.8132   90.7515   14.3719 C.ar    1  UNL1        0.0303
      2 C          64.4049   89.3484   14.0337 C.ar    1  UNL1        0.0147
      3 C          63.6569   88.5223   15.0378 C.ar    1  UNL1        0.0505
      4 C          63.3172   89.0994   16.3800 C.ar    1  UNL1        0.0170
      5 C          63.7254   90.5026   16.7181 C.ar    1  UNL1        0.0307
      6 C          64.4734   91.3286   15.7141 C.ar    1  UNL1        0.1383
      7 F          64.8818   92.7319   16.0523 F       1  UNL1       -0.2044
      8 C          66.5852   91.5069   14.4617 C.3     1  UNL1        0.0336
      9 C          65.5612   91.5776   13.3679 C.3     1  UNL1        0.1262
     10 C          64.2775   91.3615   12.6227 C.2     1  UNL1        0.0068
     11 C          64.0974   91.9468   11.2535 C.2     1  UNL1        0.0357
     12 S          65.2011   92.7484   10.6293 S.3     1  UNL1       -0.0536
     13 C          66.4848   92.9645   11.3745 C.2     1  UNL1        0.1526
     14 N          67.5885   93.7661   10.7504 N.pl3   1  UNL1       -0.3378
     15 N          66.6649   92.3792   12.7438 N.2     1  UNL1       -0.2464
     16 H          67.4703   94.1503    9.8517 H       1  UNL1        0.1442
     17 H          68.4311   93.9079   11.2395 H       1  UNL1        0.1442
     18 N          63.2486   87.1191   14.6996 N.am    1  UNL1       -0.2791
     19 C          64.2670   86.0179   14.7126 C.2     1  UNL1        0.2672
     20 O          65.6938   86.3199   15.0637 O.2     1  UNL1       -0.2682
     21 H          62.3122   86.9209   14.4692 H       1  UNL1        0.1552
     22 C          63.8588   84.6147   14.3744 C.ar    1  UNL1        0.1348
     23 C          62.6639   84.0000   15.0411 C.ar    1  UNL1        0.0245
     24 C          62.2557   82.5967   14.7029 C.ar    1  UNL1        0.0135
     25 C          63.0423   81.8083   13.6981 C.ar    1  UNL1        0.0876
     26 C          64.2371   82.4230   13.0315 C.ar    1  UNL1        0.1092
     27 N          64.6454   83.8262   13.3696 N.ar    1  UNL1       -0.2385
     28 C          62.6340   80.4051   13.3600 C.1     1  UNL1        0.1020
     29 N          62.2257   79.0019   13.0218 N.1     1  UNL1       -0.1908
@<TRIPOS>BOND
     1     9     8    1
     2     9     1    1
     3     1     2   ar
     4     2     3   ar
     5     3    18    1
     6    18    19   am
     7    19    20    2
     8    19    22    1
     9    22    23   ar
    10    23    24   ar
    11    24    25   ar
    12    25    28    1
    13    28    29    3
    14    25    26   ar
    15    26    27   ar
    16     3     4   ar
    17     4     5   ar
    18     5     6   ar
    19     6     7    1
    20     9    10    1
    21    10    11    2
    22    11    12    1
    23    12    13    1
    24    13    14    1
    25    13    15    2
    26    15     9    1
    27     6     1   ar
    28    27    22   ar
    29    18    21    1
    30    14    16    1
    31    14    17    1
@<TRIPOS>MOLECULE
*****
 29 31 0 0 0
SMALL
GASTEIGER

@<TRIPOS>ATOM
      1 C          63.8470   90.4871   12.5612 C.ar    1  UNL1        0.0303
      2 C          63.5676   89.0202   12.7030 C.ar    1  UNL1        0.0147
      3 C          62.8465   88.2853   11.6122 C.ar    1  UNL1        0.0505
      4 C          62.4049   89.0172   10.3796 C.ar    1  UNL1        0.0170
      5 C          62.6843   90.4841   10.2378 C.ar    1  UNL1        0.0307
      6 C          63.4054   91.2190   11.3286 C.ar    1  UNL1        0.1383
      7 F          63.6849   92.6860   11.1869 F       1  UNL1       -0.2044
      8 C          63.4720   90.5809   14.4505 C.3     1  UNL1        0.0336
      9 C          64.5681   91.2221   13.6521 C.3     1  UNL1        0.1262
     10 C          65.4137   91.6081   12.4748 C.2     1  UNL1        0.0068
     11 C          66.5998   92.5063   12.6657 C.2     1  UNL1        0.0357
     12 S          66.9401   93.0186   14.0338 S.3     1  UNL1       -0.0536
     13 C          66.0945   92.6327   15.2110 C.2     1  UNL1        0.1526
     14 N          66.4349   93.1450   16.5792 N.pl3   1  UNL1       -0.3378
     15 N          64.9085   91.7344   15.0202 N.2     1  UNL1       -0.2464
     16 H          67.2134   93.7345   16.7044 H       1  UNL1        0.1442
     17 H          65.8799   92.8916   17.3518 H       1  UNL1        0.1442
     18 N          62.5670   86.8183   11.7539 N.am    1  UNL1       -0.2791
     19 C          63.1525   86.0508   12.9020 C.2     1  UNL1        0.2672
     20 O          64.0175   86.7503   13.9084 O.2     1  UNL1       -0.2682
     21 H          61.9993   86.3593   11.0934 H       1  UNL1        0.1552
     22 C          62.8731   84.5839   13.0438 C.ar    1  UNL1        0.1348
     23 C          62.9072   83.6939   11.8369 C.ar    1  UNL1        0.0245
     24 C          62.6278   82.2269   11.9787 C.ar    1  UNL1        0.0135
     25 C          62.3142   81.6501   13.3274 C.ar    1  UNL1        0.0876
     26 C          62.2801   82.5402   14.5342 C.ar    1  UNL1        0.1092
     27 N          62.5595   84.0071   14.3925 N.ar    1  UNL1       -0.2385
     28 C          62.0348   80.1832   13.4691 C.1     1  UNL1        0.1020
     29 N          61.7553   78.7163   13.6109 N.1     1  UNL1       -0.1908
@<TRIPOS>BOND
     1     9     8    1
     2     9     1    1
     3     1     2   ar
     4     2     3   ar
     5     3    18    1
     6    18    19   am
     7    19    20    2
     8    19    22    1
     9    22    23   ar
    10    23    24   ar
    11    24    25   ar
    12    25    28    1
    13    28    29    3
    14    25    26   ar
    15    26    27   ar
    16     3     4   ar
    17     4     5   ar
    18     5     6   ar
    19     6     7    1
    20     9    10    1
    21    10    11    2
    22    11    12    1
    23    12    13    1
    24    13    14    1
    25    13    15    2
    26    15     9    1
    27     6     1   ar
    28    27    22   ar
    29    18    21    1
    30    14    16    1
    31    14    17    1
@<TRIPOS>MOLECULE
*****
 29 31 0 0 0
SMALL
GASTEIGER

@<TRIPOS>ATOM
      1 C          62.0588   87.0086   10.9202 C.ar    1  UNL1        0.0303
      2 C          63.0373   87.9808   11.5094 C.ar    1  UNL1        0.0147
      3 C          62.6677   89.4283   11.6437 C.ar    1  UNL1        0.0505
      4 C          61.3197   89.9036   11.1888 C.ar    1  UNL1        0.0170
      5 C          60.3412   88.9313   10.5996 C.ar    1  UNL1        0.0307
      6 C          60.7108   87.4838   10.4653 C.ar    1  UNL1        0.1383
      7 F          59.7323   86.5114    9.8760 F       1  UNL1       -0.2044
      8 C          62.3957   85.9568    9.3394 C.3     1  UNL1        0.0336
      9 C          62.4283   85.5610   10.7859 C.3     1  UNL1        0.1262
     10 C          62.3326   85.6679   12.2790 C.2     1  UNL1        0.0068
     11 C          62.5950   84.4647   13.1354 C.2     1  UNL1        0.0357
     12 S          62.9533   83.1546   12.4987 S.3     1  UNL1       -0.0536
     13 C          63.0490   83.0477   11.0056 C.2     1  UNL1        0.1526
     14 N          63.4072   81.7376   10.3689 N.pl3   1  UNL1       -0.3378
     15 N          62.7865   84.2508   10.1492 N.2     1  UNL1       -0.2464
     16 H          63.5795   80.9479   10.9310 H       1  UNL1        0.1442
     17 H          63.4700   81.6674    9.3889 H       1  UNL1        0.1442
     18 N          63.6462   90.4007   12.2330 N.am    1  UNL1       -0.2791
     19 C          64.2664   90.1232   13.5703 C.2     1  UNL1        0.2672
     20 O          63.9082   88.8732   14.3183 O.2     1  UNL1       -0.2682
     21 H          63.8813   91.2210   11.7420 H       1  UNL1        0.1552
     22 C          65.2449   91.0954   14.1595 C.ar    1  UNL1        0.1348
     23 C          66.4717   91.4847   13.3893 C.ar    1  UNL1        0.0245
     24 C          67.4502   92.4570   13.9786 C.ar    1  UNL1        0.0135
     25 C          67.2018   93.0401   15.3381 C.ar    1  UNL1        0.0876
     26 C          65.9749   92.6508   16.1084 C.ar    1  UNL1        0.1092
     27 N          64.9965   91.6785   15.5191 N.ar    1  UNL1       -0.2385
     28 C          68.1802   94.0123   15.9274 C.1     1  UNL1        0.1020
     29 N          69.1587   94.9847   16.5167 N.1     1  UNL1       -0.1908
@<TRIPOS>BOND
     1     9     8    1
     2     9     1    1
     3     1     2   ar
     4     2     3   ar
     5     3    18    1
     6    18    19   am
     7    19    20    2
     8    19    22    1
     9    22    23   ar
    10    23    24   ar
    11    24    25   ar
    12    25    28    1
    13    28    29    3
    14    25    26   ar
    15    26    27   ar
    16     3     4   ar
    17     4     5   ar
    18     5     6   ar
    19     6     7    1
    20     9    10    1
    21    10    11    2
    22    11    12    1
    23    12    13    1
    24    13    14    1
    25    13    15    2
    26    15     9    1
    27     6     1   ar
    28    27    22   ar
    29    18    21    1
    30    14    16    1
    31    14    17    1
@<TRIPOS>MOLECULE
*****
 29 31 0 0 0
SMALL
GASTEIGER

@<TRIPOS>ATOM
      1 C          62.2623   86.5051   11.2454 C.ar    1  UNL1        0.0303
      2 C          63.2150   87.3349   12.0538 C.ar    1  UNL1        0.0147
      3 C          62.9319   88.7895   12.2859 C.ar    1  UNL1        0.0505
      4 C          61.6960   89.4143   11.7095 C.ar    1  UNL1        0.0170
      5 C          60.7432   88.5845   10.9011 C.ar    1  UNL1        0.0307
      6 C          61.0264   87.1299   10.6690 C.ar    1  UNL1        0.1383
      7 F          60.0736   86.3000    9.8606 F       1  UNL1       -0.2044
      8 C          62.5746   85.5503    9.5993 C.3     1  UNL1        0.0336
      9 C          62.5454   85.0504   11.0133 C.3     1  UNL1        0.1262
     10 C          62.4178   85.0557   12.5078 C.2     1  UNL1        0.0068
     11 C          62.5835   83.7800   13.2792 C.2     1  UNL1        0.0357
     12 S          62.8768   82.4989   12.5560 S.3     1  UNL1       -0.0536
     13 C          63.0043   82.4936   11.0614 C.2     1  UNL1        0.1526
     14 N          63.2976   81.2126   10.3382 N.pl3   1  UNL1       -0.3378
     15 N          62.8386   83.7694   10.2901 N.2     1  UNL1       -0.2464
     16 H          63.4063   80.3753   10.8445 H       1  UNL1        0.1442
     17 H          63.3813   81.2091    9.3573 H       1  UNL1        0.1442
     18 N          63.8847   89.6194   13.0943 N.am    1  UNL1       -0.2791
     19 C          64.4522   90.8834   12.5196 C.2     1  UNL1        0.2672
     20 O          64.0669   91.3174   11.1364 O.2     1  UNL1       -0.2682
     21 H          64.1376   89.3345   14.0021 H       1  UNL1        0.1552
     22 C          65.4049   91.7133   13.3279 C.ar    1  UNL1        0.1348
     23 C          66.0980   91.1156   14.5164 C.ar    1  UNL1        0.0245
     24 C          67.0508   91.9455   15.3248 C.ar    1  UNL1        0.0135
     25 C          67.3105   93.3731   14.9447 C.ar    1  UNL1        0.0876
     26 C          66.6174   93.9708   13.7563 C.ar    1  UNL1        0.1092
     27 N          65.6647   93.1409   12.9479 N.ar    1  UNL1       -0.2385
     28 C          68.2632   94.2030   15.7531 C.1     1  UNL1        0.1020
     29 N          69.2161   95.0329   16.5615 N.1     1  UNL1       -0.1908
@<TRIPOS>BOND
     1     9     8    1
     2     9     1    1
     3     1     2   ar
     4     2     3   ar
     5     3    18    1
     6    18    19   am
     7    19    20    2
     8    19    22    1
     9    22    23   ar
    10    23    24   ar
    11    24    25   ar
    12    25    28    1
    13    28    29    3
    14    25    26   ar
    15    26    27   ar
    16     3     4   ar
    17     4     5   ar
    18     5     6   ar
    19     6     7    1
    20     9    10    1
    21    10    11    2
    22    11    12    1
    23    12    13    1
    24    13    14    1
    25    13    15    2
    26    15     9    1
    27     6     1   ar
    28    27    22   ar
    29    18    21    1
    30    14    16    1
    31    14    17    1
@<TRIPOS>MOLECULE
*****
 29 31 0 0 0
SMALL
GASTEIGER

@<TRIPOS>ATOM
      1 C          61.1416   88.0609   10.0783 C.ar    1  UNL1        0.0303
      2 C          62.2818   88.8779   10.6095 C.ar    1  UNL1        0.0147
      3 C          62.0401   89.8894   11.6904 C.ar    1  UNL1        0.0505
      4 C          60.6581   90.0838   12.2402 C.ar    1  UNL1        0.0170
      5 C          59.5178   89.2667   11.7090 C.ar    1  UNL1        0.0307
      6 C          59.7596   88.2553   10.6281 C.ar    1  UNL1        0.1383
      7 F          58.6193   87.4381   10.0969 F       1  UNL1       -0.2044
      8 C          60.4631   87.9880    8.2747 C.3     1  UNL1        0.0336
      9 C          61.3833   87.0493    8.9973 C.3     1  UNL1        0.1262
     10 C          62.2195   86.4619   10.0954 C.2     1  UNL1        0.0068
     11 C          62.9778   85.1891    9.8615 C.2     1  UNL1        0.0357
     12 S          62.8999   84.5036    8.5295 S.3     1  UNL1       -0.0536
     13 C          62.0638   85.0910    7.4315 C.2     1  UNL1        0.1526
     14 N          61.9859   84.4055    6.0995 N.pl3   1  UNL1       -0.3378
     15 N          61.3054   86.3638    7.6654 N.2     1  UNL1       -0.2464
     16 H          62.4836   83.5700    5.9460 H       1  UNL1        0.1442
     17 H          61.4371   84.7910    5.3789 H       1  UNL1        0.1442
     18 N          63.1804   90.7065   12.2216 N.am    1  UNL1       -0.2791
     19 C          63.7076   90.4500   13.6023 C.2     1  UNL1        0.2672
     20 O          63.0945   89.3763   14.4517 O.2     1  UNL1       -0.2682
     21 H          63.5827   91.4112   11.6641 H       1  UNL1        0.1552
     22 C          64.8478   91.2670   14.1335 C.ar    1  UNL1        0.1348
     23 C          66.0000   91.6175   13.2393 C.ar    1  UNL1        0.0245
     24 C          67.1402   92.4346   13.7706 C.ar    1  UNL1        0.0135
     25 C          67.1283   92.9012   15.1961 C.ar    1  UNL1        0.0876
     26 C          65.9762   92.5507   16.0904 C.ar    1  UNL1        0.1092
     27 N          64.8360   91.7336   15.5591 N.ar    1  UNL1       -0.2385
     28 C          68.2686   93.7182   15.7273 C.1     1  UNL1        0.1020
     29 N          69.4088   94.5353   16.2586 N.1     1  UNL1       -0.1908
@<TRIPOS>BOND
     1     9     8    1
     2     9     1    1
     3     1     2   ar
     4     2     3   ar
     5     3    18    1
     6    18    19   am
     7    19    20    2
     8    19    22    1
     9    22    23   ar
    10    23    24   ar
    11    24    25   ar
    12    25    28    1
    13    28    29    3
    14    25    26   ar
    15    26    27   ar
    16     3     4   ar
    17     4     5   ar
    18     5     6   ar
    19     6     7    1
    20     9    10    1
    21    10    11    2
    22    11    12    1
    23    12    13    1
    24    13    14    1
    25    13    15    2
    26    15     9    1
    27     6     1   ar
    28    27    22   ar
    29    18    21    1
    30    14    16    1
    31    14    17    1
