@<TRIPOS>MOLECULE
*****
 44 48 0 0 0
SMALL
GASTEIGER

@<TRIPOS>ATOM
      1 C          62.8217   86.7057   11.7009 C.3     1  UNL1        0.1696
      2 C          62.9218   85.6415   12.7534 C.3     1  UNL1        0.1274
      3 N          63.0442   85.8047   14.2394 N.am    1  UNL1       -0.2517
      4 C          63.1247   84.5320   15.0294 C.2     1  UNL1        0.2550
      5 O          63.2490   84.5832   16.5234 O.2     1  UNL1       -0.2695
      6 C          63.0966   87.0720   15.0401 C.ar    1  UNL1        0.0679
      7 C          63.2225   86.7883   16.5076 C.ar    1  UNL1        0.0162
      8 C          63.2914   87.9220   17.4874 C.ar    1  UNL1        0.0014
      9 C          63.2345   89.3393   16.9997 C.ar    1  UNL1        0.0014
     10 C          63.1086   89.6230   15.5322 C.ar    1  UNL1        0.0162
     11 C          63.0397   88.4894   14.5524 C.ar    1  UNL1        0.0679
     12 N          62.9162   88.9894   13.1436 N.am    1  UNL1       -0.2517
     13 C          62.8192   88.1956   11.8745 C.2     1  UNL1        0.2493
     14 O          62.7045   88.9977   10.6123 O.2     1  UNL1       -0.2727
     15 C          63.0810   83.2082   14.3253 C.ar    1  UNL1        0.0813
     16 C          61.9065   82.2952   14.5170 C.ar    1  UNL1        0.0068
     17 C          61.8627   80.9715   13.8130 C.ar    1  UNL1        0.0003
     18 C          62.9935   80.5607   12.9172 C.ar    1  UNL1        0.0023
     19 C          64.1681   81.4737   12.7255 C.ar    1  UNL1        0.0298
     20 C          64.2119   82.7974   13.4295 C.ar    1  UNL1        0.1445
     21 F          65.3865   83.7105   13.2378 F       1  UNL1       -0.2040
     22 C          61.3790   86.2229    9.5948 C.2     1  UNL1        0.2371
     23 O          60.1611   86.7217   10.3148 O.2     1  UNL1       -0.2737
     24 N          62.7092   86.2149   10.2879 N.am    1  UNL1       -0.2959
     25 H          63.5085   85.8876    9.8154 H       1  UNL1        0.1499
     26 C          61.2665   85.7322    8.1819 C.3     1  UNL1        0.1316
     27 C          62.4774   85.2004    7.4740 C.3     1  UNL1        0.0270
     28 C          59.1351   87.0369    7.4714 C.3     1  UNL1        0.0862
     29 N          59.9432   85.7732    7.4768 N.3     1  UNL1       -0.2902
     30 H          60.1217   85.5337    6.5015 H       1  UNL1        0.1237
     31 C          62.8857   90.4804   12.9825 C.3     1  UNL1        0.1278
     32 C          64.0513   91.1918   12.3617 C.ar    1  UNL1        0.0320
     33 C          64.0148   91.5657   10.9096 C.ar    1  UNL1        0.1363
     34 C          65.1803   92.2771   10.2888 C.ar    1  UNL1        0.0366
     35 C          66.3824   92.6145   11.1201 C.ar    1  UNL1        0.0031
     36 C          66.4190   92.2405   12.5723 C.ar    1  UNL1        0.0004
     37 C          67.6211   92.5779   13.4037 C.ar    1  UNL1        0.0067
     38 C          67.6575   92.2038   14.8558 C.ar    1  UNL1        0.0346
     39 BR         68.8596   92.5412   15.6872 Br      1  UNL1       -0.0490
     40 C          66.4919   91.4925   15.4767 C.ar    1  UNL1        0.0067
     41 C          65.2899   91.1551   14.6452 C.ar    1  UNL1        0.0003
     42 C          65.2534   91.5291   13.1932 C.ar    1  UNL1        0.0006
     43 O          62.8127   91.2284   10.0782 O.3     1  UNL1       -0.4717
     44 C          61.3436   91.1273   10.3632 C.3     1  UNL1        0.2525
@<TRIPOS>BOND
     1    28    29    1
     2    29    26    1
     3    26    27    1
     4    26    22    1
     5    22    23    2
     6    22    24   am
     7     1    24    1
     8     1     2    1
     9     2     3    1
    10     3     4   am
    11     4     5    2
    12     4    15    1
    13    15    16   ar
    14    16    17   ar
    15    17    18   ar
    16    18    19   ar
    17    19    20   ar
    18    20    21    1
    19     3     6    1
    20     6     7   ar
    21     7     8   ar
    22     8     9   ar
    23     9    10   ar
    24    10    11   ar
    25    11    12    1
    26    12    31    1
    27    31    32    1
    28    32    33   ar
    29    33    43    1
    30    43    44    1
    31    33    34   ar
    32    34    35   ar
    33    35    36   ar
    34    36    37   ar
    35    37    38   ar
    36    38    39    1
    37    38    40   ar
    38    40    41   ar
    39    41    42   ar
    40    12    13   am
    41    13    14    2
    42    13     1    1
    43    20    15   ar
    44    11     6   ar
    45    42    32   ar
    46    42    36   ar
    47    29    30    1
    48    24    25    1
@<TRIPOS>MOLECULE
*****
 44 48 0 0 0
SMALL
GASTEIGER

@<TRIPOS>ATOM
      1 C          61.7842   86.1158   10.9289 C.3     1  UNL1        0.1696
      2 C          62.5003   84.9382   11.5211 C.3     1  UNL1        0.1274
      3 N          63.4184   84.9015   12.7066 N.am    1  UNL1       -0.2517
      4 C          63.9823   83.5549   13.0516 C.2     1  UNL1        0.2550
      5 O          64.9116   83.4078   14.2199 O.2     1  UNL1       -0.2695
      6 C          63.8474   86.0331   13.5929 C.ar    1  UNL1        0.0679
      7 C          64.7789   85.5626   14.6703 C.ar    1  UNL1        0.0162
      8 C          65.3270   86.5401   15.6673 C.ar    1  UNL1        0.0014
      9 C          64.9437   87.9881   15.5868 C.ar    1  UNL1        0.0014
     10 C          64.0122   88.4585   14.5094 C.ar    1  UNL1        0.0162
     11 C          63.4641   87.4811   13.5124 C.ar    1  UNL1        0.0679
     12 N          62.5571   88.1549   12.5258 N.am    1  UNL1       -0.2517
     13 C          61.8095   87.5474   11.3760 C.2     1  UNL1        0.2493
     14 O          60.9772   88.4969   10.5664 O.2     1  UNL1       -0.2727
     15 C          63.6167   82.3554   12.2284 C.ar    1  UNL1        0.0813
     16 C          62.8618   81.2194   12.8523 C.ar    1  UNL1        0.0068
     17 C          62.4963   80.0199   12.0292 C.ar    1  UNL1        0.0003
     18 C          62.8857   79.9566   10.5820 C.ar    1  UNL1        0.0023
     19 C          63.6406   81.0926    9.9580 C.ar    1  UNL1        0.0298
     20 C          64.0061   82.2921   10.7812 C.ar    1  UNL1        0.1445
     21 F          64.7611   83.4283   10.1572 F       1  UNL1       -0.2040
     22 C          61.5657   85.6213    8.3877 C.2     1  UNL1        0.2371
     23 O          63.0559   85.7124    8.2418 O.2     1  UNL1       -0.2737
     24 N          60.9299   85.8231    9.7312 N.am    1  UNL1       -0.2959
     25 H          59.9519   85.7633    9.8269 H       1  UNL1        0.1499
     26 C          60.7114   85.3286    7.1900 C.3     1  UNL1        0.1316
     27 C          61.2573   84.5024    6.0633 C.3     1  UNL1        0.0270
     28 C          59.0256   87.2760    7.5302 C.3     1  UNL1        0.0862
     29 N          59.3113   85.8620    7.1190 N.3     1  UNL1       -0.2902
     30 H          59.0104   85.7710    6.1487 H       1  UNL1        0.1237
     31 C          62.3735   89.6317   12.7139 C.3     1  UNL1        0.1278
     32 C          63.3326   90.5939   12.0777 C.ar    1  UNL1        0.0320
     33 C          63.2509   90.8712   10.6059 C.ar    1  UNL1        0.1363
     34 C          64.2099   91.8333    9.9696 C.ar    1  UNL1        0.0366
     35 C          65.2505   92.5180   10.8053 C.ar    1  UNL1        0.0031
     36 C          65.3322   92.2406   12.2772 C.ar    1  UNL1        0.0004
     37 C          66.3728   92.9252   13.1128 C.ar    1  UNL1        0.0067
     38 C          66.4544   92.6478   14.5847 C.ar    1  UNL1        0.0346
     39 BR         67.4950   93.3324   15.4203 Br      1  UNL1       -0.0490
     40 C          65.4954   91.6857   15.2209 C.ar    1  UNL1        0.0067
     41 C          64.4548   91.0011   14.3852 C.ar    1  UNL1        0.0003
     42 C          64.3732   91.2785   12.9134 C.ar    1  UNL1        0.0006
     43 O          62.2103   90.1866    9.7701 O.3     1  UNL1       -0.4717
     44 C          60.7682   90.4660    9.4665 C.3     1  UNL1        0.2525
@<TRIPOS>BOND
     1    28    29    1
     2    29    26    1
     3    26    27    1
     4    26    22    1
     5    22    23    2
     6    22    24   am
     7     1    24    1
     8     1     2    1
     9     2     3    1
    10     3     4   am
    11     4     5    2
    12     4    15    1
    13    15    16   ar
    14    16    17   ar
    15    17    18   ar
    16    18    19   ar
    17    19    20   ar
    18    20    21    1
    19     3     6    1
    20     6     7   ar
    21     7     8   ar
    22     8     9   ar
    23     9    10   ar
    24    10    11   ar
    25    11    12    1
    26    12    31    1
    27    31    32    1
    28    32    33   ar
    29    33    43    1
    30    43    44    1
    31    33    34   ar
    32    34    35   ar
    33    35    36   ar
    34    36    37   ar
    35    37    38   ar
    36    38    39    1
    37    38    40   ar
    38    40    41   ar
    39    41    42   ar
    40    12    13   am
    41    13    14    2
    42    13     1    1
    43    20    15   ar
    44    11     6   ar
    45    42    32   ar
    46    42    36   ar
    47    29    30    1
    48    24    25    1
@<TRIPOS>MOLECULE
*****
 44 48 0 0 0
SMALL
GASTEIGER

@<TRIPOS>ATOM
      1 C          62.7264   86.3761   12.3913 C.3     1  UNL1        0.1696
      2 C          62.1453   87.0049   11.1597 C.3     1  UNL1        0.1274
      3 N          62.2996   88.4133   10.6671 N.am    1  UNL1       -0.2517
      4 C          61.5861   88.7372    9.3880 C.2     1  UNL1        0.2550
      5 O          61.6752   90.1179    8.8083 O.2     1  UNL1       -0.2695
      6 C          63.0730   89.5407   11.2844 C.ar    1  UNL1        0.0679
      7 C          62.9650   90.7925   10.4651 C.ar    1  UNL1        0.0162
      8 C          63.6673   92.0417   10.9082 C.ar    1  UNL1        0.0014
      9 C          64.4774   92.0390   12.1706 C.ar    1  UNL1        0.0014
     10 C          64.5854   90.7872   12.9899 C.ar    1  UNL1        0.0162
     11 C          63.8831   89.5380   12.5467 C.ar    1  UNL1        0.0679
     12 N          64.1200   88.4074   13.5036 N.am    1  UNL1       -0.2517
     13 C          63.6052   87.0002   13.4345 C.2     1  UNL1        0.2493
     14 O          64.0247   86.0978   14.5568 O.2     1  UNL1       -0.2727
     15 C          60.7835   87.6805    8.6885 C.ar    1  UNL1        0.0813
     16 C          59.3063   87.8614    8.5018 C.ar    1  UNL1        0.0068
     17 C          58.5037   86.8048    7.8024 C.ar    1  UNL1        0.0003
     18 C          59.1784   85.5671    7.2897 C.ar    1  UNL1        0.0023
     19 C          60.6556   85.3861    7.4764 C.ar    1  UNL1        0.0298
     20 C          61.4582   86.4428    8.1758 C.ar    1  UNL1        0.1445
     21 F          62.9356   86.2619    8.3625 F       1  UNL1       -0.2040
     22 C          63.0723   83.8686   11.8059 C.2     1  UNL1        0.2371
     23 O          64.1044   84.2490   10.7860 O.2     1  UNL1       -0.2737
     24 N          62.3833   84.9321   12.6085 N.am    1  UNL1       -0.2959
     25 H          61.7059   84.6824   13.2778 H       1  UNL1        0.1499
     26 C          62.7292   82.4246   12.0230 C.3     1  UNL1        0.1316
     27 C          63.0656   81.4076   10.9729 C.3     1  UNL1        0.0270
     28 C          62.0009   80.5453   13.6625 C.3     1  UNL1        0.0862
     29 N          62.0496   81.9975   13.2902 N.3     1  UNL1       -0.2902
     30 H          62.5206   82.4817   14.0545 H       1  UNL1        0.1237
     31 C          64.9862   88.7261   14.6860 C.3     1  UNL1        0.1278
     32 C          64.7937   90.0135   15.4315 C.ar    1  UNL1        0.0320
     33 C          63.4990   90.2841   16.1389 C.ar    1  UNL1        0.1363
     34 C          63.3065   91.5714   16.8844 C.ar    1  UNL1        0.0366
     35 C          64.4087   92.5881   16.9225 C.ar    1  UNL1        0.0031
     36 C          65.7034   92.3175   16.2150 C.ar    1  UNL1        0.0004
     37 C          66.8056   93.3343   16.2530 C.ar    1  UNL1        0.0067
     38 C          68.1003   93.0636   15.5456 C.ar    1  UNL1        0.0346
     39 BR         69.2025   94.0803   15.5836 Br      1  UNL1       -0.0490
     40 C          68.2928   91.7763   14.8001 C.ar    1  UNL1        0.0067
     41 C          67.1906   90.7596   14.7621 C.ar    1  UNL1        0.0003
     42 C          65.8960   91.0302   15.4695 C.ar    1  UNL1        0.0006
     43 O          62.3968   89.2674   16.1010 O.3     1  UNL1       -0.4717
     44 C          62.1523   87.9685   16.8101 C.3     1  UNL1        0.2525
@<TRIPOS>BOND
     1    28    29    1
     2    29    26    1
     3    26    27    1
     4    26    22    1
     5    22    23    2
     6    22    24   am
     7     1    24    1
     8     1     2    1
     9     2     3    1
    10     3     4   am
    11     4     5    2
    12     4    15    1
    13    15    16   ar
    14    16    17   ar
    15    17    18   ar
    16    18    19   ar
    17    19    20   ar
    18    20    21    1
    19     3     6    1
    20     6     7   ar
    21     7     8   ar
    22     8     9   ar
    23     9    10   ar
    24    10    11   ar
    25    11    12    1
    26    12    31    1
    27    31    32    1
    28    32    33   ar
    29    33    43    1
    30    43    44    1
    31    33    34   ar
    32    34    35   ar
    33    35    36   ar
    34    36    37   ar
    35    37    38   ar
    36    38    39    1
    37    38    40   ar
    38    40    41   ar
    39    41    42   ar
    40    12    13   am
    41    13    14    2
    42    13     1    1
    43    20    15   ar
    44    11     6   ar
    45    42    32   ar
    46    42    36   ar
    47    29    30    1
    48    24    25    1
@<TRIPOS>MOLECULE
*****
 44 48 0 0 0
SMALL
GASTEIGER

@<TRIPOS>ATOM
      1 C          62.5468   95.7204   -2.3229 C.3     1  UNL1        0.1696
      2 C          62.9011   95.6720   -3.7797 C.3     1  UNL1        0.1274
      3 N          61.9824   95.6502   -4.9653 N.am    1  UNL1       -0.2517
      4 C          62.6521   95.6005   -6.3066 C.2     1  UNL1        0.2550
      5 O          61.8247   95.5755   -7.5576 O.2     1  UNL1       -0.2695
      6 C          60.4827   95.6715   -4.9871 C.ar    1  UNL1        0.0679
      7 C          59.9545   95.6375   -6.3905 C.ar    1  UNL1        0.0162
      8 C          58.4747   95.6519   -6.6354 C.ar    1  UNL1        0.0014
      9 C          57.5232   95.7003   -5.4769 C.ar    1  UNL1        0.0014
     10 C          58.0515   95.7343   -4.0734 C.ar    1  UNL1        0.0162
     11 C          59.5312   95.7199   -3.8285 C.ar    1  UNL1        0.0679
     12 N          59.8445   95.7589   -2.3621 N.am    1  UNL1       -0.2517
     13 C          61.1864   95.7591   -1.6920 C.2     1  UNL1        0.2493
     14 O          61.1654   95.8040   -0.1929 O.2     1  UNL1       -0.2727
     15 C          64.1492   95.5759   -6.3970 C.ar    1  UNL1        0.0813
     16 C          64.9286   96.8523   -6.2823 C.ar    1  UNL1        0.0068
     17 C          66.4256   96.8278   -6.3727 C.ar    1  UNL1        0.0003
     18 C          67.1433   95.5267   -6.5778 C.ar    1  UNL1        0.0023
     19 C          66.3640   94.2503   -6.6925 C.ar    1  UNL1        0.0298
     20 C          64.8669   94.2748   -6.6021 C.ar    1  UNL1        0.1445
     21 F          64.0875   92.9983   -6.7168 F       1  UNL1       -0.2040
     22 C          64.0218   94.5107   -0.5592 C.2     1  UNL1        0.2371
     23 O          63.1781   93.2783   -0.6988 O.2     1  UNL1       -0.2737
     24 N          63.7061   95.7317   -1.3712 N.am    1  UNL1       -0.2959
     25 H          64.2599   96.5406   -1.2796 H       1  UNL1        0.1499
     26 C          65.1812   94.5220    0.3925 C.3     1  UNL1        0.1316
     27 C          65.7274   93.2302    0.9245 C.3     1  UNL1        0.0270
     28 C          66.4341   96.7167   -0.2103 C.3     1  UNL1        0.0862
     29 N          65.7943   95.8250    0.8122 N.3     1  UNL1       -0.2902
     30 H          65.0544   96.3693    1.2558 H       1  UNL1        0.1237
     31 C          58.6588   95.8035   -1.4443 C.3     1  UNL1        0.1278
     32 C          57.6231   94.7200   -1.5037 C.ar    1  UNL1        0.0320
     33 C          58.0255   93.2870   -1.3175 C.ar    1  UNL1        0.1363
     34 C          56.9899   92.2034   -1.3768 C.ar    1  UNL1        0.0366
     35 C          55.5520   92.5529   -1.6223 C.ar    1  UNL1        0.0031
     36 C          55.1496   93.9859   -1.8085 C.ar    1  UNL1        0.0004
     37 C          53.7117   94.3354   -2.0539 C.ar    1  UNL1        0.0067
     38 C          53.3094   95.7684   -2.2401 C.ar    1  UNL1        0.0346
     39 BR         51.8715   96.1178   -2.4856 Br      1  UNL1       -0.0490
     40 C          54.3450   96.8520   -2.1808 C.ar    1  UNL1        0.0067
     41 C          55.7829   96.5024   -1.9353 C.ar    1  UNL1        0.0003
     42 C          56.1852   95.0695   -1.7492 C.ar    1  UNL1        0.0006
     43 O          59.4634   92.9375   -1.0720 O.3     1  UNL1       -0.4717
     44 C          60.1660   92.0419   -0.0952 C.3     1  UNL1        0.2525
@<TRIPOS>BOND
     1    28    29    1
     2    29    26    1
     3    26    27    1
     4    26    22    1
     5    22    23    2
     6    22    24   am
     7     1    24    1
     8     1     2    1
     9     2     3    1
    10     3     4   am
    11     4     5    2
    12     4    15    1
    13    15    16   ar
    14    16    17   ar
    15    17    18   ar
    16    18    19   ar
    17    19    20   ar
    18    20    21    1
    19     3     6    1
    20     6     7   ar
    21     7     8   ar
    22     8     9   ar
    23     9    10   ar
    24    10    11   ar
    25    11    12    1
    26    12    31    1
    27    31    32    1
    28    32    33   ar
    29    33    43    1
    30    43    44    1
    31    33    34   ar
    32    34    35   ar
    33    35    36   ar
    34    36    37   ar
    35    37    38   ar
    36    38    39    1
    37    38    40   ar
    38    40    41   ar
    39    41    42   ar
    40    12    13   am
    41    13    14    2
    42    13     1    1
    43    20    15   ar
    44    11     6   ar
    45    42    32   ar
    46    42    36   ar
    47    29    30    1
    48    24    25    1
@<TRIPOS>MOLECULE
*****
 44 48 0 0 0
SMALL
GASTEIGER

@<TRIPOS>ATOM
      1 C          60.3807   93.8051   -1.1153 C.3     1  UNL1        0.1696
      2 C          61.0143   93.5662    0.2231 C.3     1  UNL1        0.1274
      3 N          62.3431   94.0456    0.7277 N.am    1  UNL1       -0.2517
      4 C          62.6952   93.6338    2.1264 C.2     1  UNL1        0.2550
      5 O          64.0017   94.0604    2.7275 O.2     1  UNL1       -0.2695
      6 C          63.3664   94.8823    0.0185 C.ar    1  UNL1        0.0679
      7 C          64.5626   95.1376    0.8866 C.ar    1  UNL1        0.0162
      8 C          65.7061   95.9569    0.3659 C.ar    1  UNL1        0.0014
      9 C          65.6533   96.5209   -1.0231 C.ar    1  UNL1        0.0014
     10 C          64.4570   96.2656   -1.8912 C.ar    1  UNL1        0.0162
     11 C          63.3135   95.4463   -1.3704 C.ar    1  UNL1        0.0679
     12 N          62.2244   95.3128   -2.3932 N.am    1  UNL1       -0.2517
     13 C          60.9192   94.5825   -2.2797 C.2     1  UNL1        0.2493
     14 O          60.0356   94.6366   -3.4906 O.2     1  UNL1       -0.2727
     15 C          61.7409   92.7954    2.9241 C.ar    1  UNL1        0.0813
     16 C          60.3008   93.1995    3.0363 C.ar    1  UNL1        0.0068
     17 C          59.3464   92.3611    3.8339 C.ar    1  UNL1        0.0003
     18 C          59.8323   91.1186    4.5195 C.ar    1  UNL1        0.0023
     19 C          61.2724   90.7144    4.4074 C.ar    1  UNL1        0.0298
     20 C          62.2267   91.5528    3.6097 C.ar    1  UNL1        0.1445
     21 F          63.6669   91.1487    3.4976 F       1  UNL1       -0.2040
     22 C          57.7897   93.9882   -1.0581 C.2     1  UNL1        0.2371
     23 O          57.9004   95.4122   -0.5998 O.2     1  UNL1       -0.2737
     24 N          59.0298   93.1847   -1.3159 N.am    1  UNL1       -0.2959
     25 H          58.9571   92.2501   -1.6167 H       1  UNL1        0.1499
     26 C          56.4388   93.3678   -1.2587 C.3     1  UNL1        0.1316
     27 C          55.2367   94.2400   -1.4695 C.3     1  UNL1        0.0270
     28 C          56.0080   91.1408   -2.5255 C.3     1  UNL1        0.0862
     29 N          56.2900   91.8753   -1.2484 N.3     1  UNL1       -0.2902
     30 H          57.1602   91.4951   -0.8761 H       1  UNL1        0.1237
     31 C          62.4735   96.0007   -3.7027 C.3     1  UNL1        0.1278
     32 C          62.1003   95.3241   -4.9884 C.ar    1  UNL1        0.0320
     33 C          63.0545   94.3642   -5.6351 C.ar    1  UNL1        0.1363
     34 C          62.6813   93.6875   -6.9207 C.ar    1  UNL1        0.0366
     35 C          61.3540   93.9707   -7.5596 C.ar    1  UNL1        0.0031
     36 C          60.3999   94.9306   -6.9128 C.ar    1  UNL1        0.0004
     37 C          59.0726   95.2138   -7.5517 C.ar    1  UNL1        0.0067
     38 C          58.1186   96.1737   -6.9049 C.ar    1  UNL1        0.0346
     39 BR         56.7913   96.4568   -7.5438 Br      1  UNL1       -0.0490
     40 C          58.4917   96.8504   -5.6192 C.ar    1  UNL1        0.0067
     41 C          59.8190   96.5671   -4.9804 C.ar    1  UNL1        0.0003
     42 C          60.7730   95.6073   -5.6272 C.ar    1  UNL1        0.0006
     43 O          64.3817   94.0810   -4.9963 O.3     1  UNL1       -0.4717
     44 C          65.2493   92.8618   -4.8925 C.3     1  UNL1        0.2525
@<TRIPOS>BOND
     1    28    29    1
     2    29    26    1
     3    26    27    1
     4    26    22    1
     5    22    23    2
     6    22    24   am
     7     1    24    1
     8     1     2    1
     9     2     3    1
    10     3     4   am
    11     4     5    2
    12     4    15    1
    13    15    16   ar
    14    16    17   ar
    15    17    18   ar
    16    18    19   ar
    17    19    20   ar
    18    20    21    1
    19     3     6    1
    20     6     7   ar
    21     7     8   ar
    22     8     9   ar
    23     9    10   ar
    24    10    11   ar
    25    11    12    1
    26    12    31    1
    27    31    32    1
    28    32    33   ar
    29    33    43    1
    30    43    44    1
    31    33    34   ar
    32    34    35   ar
    33    35    36   ar
    34    36    37   ar
    35    37    38   ar
    36    38    39    1
    37    38    40   ar
    38    40    41   ar
    39    41    42   ar
    40    12    13   am
    41    13    14    2
    42    13     1    1
    43    20    15   ar
    44    11     6   ar
    45    42    32   ar
    46    42    36   ar
    47    29    30    1
    48    24    25    1
