@<TRIPOS>MOLECULE
*****
 41 46 0 0 0
SMALL
GASTEIGER

@<TRIPOS>ATOM
      1 N          62.9132   83.7484   12.4821 N.ar    1  UNL1       -0.2252
      2 C          63.5654   83.5635   13.8202 C.ar    1  UNL1        0.2800
      3 O          63.9274   82.2515   14.4509 O.2     1  UNL1       -0.2654
      4 C          63.7922   84.9209   14.4169 C.ar    1  UNL1        0.1125
      5 C          64.3987   85.3569   15.7176 C.ar    1  UNL1        0.1097
      6 N          64.4932   86.8167   16.0491 N.ar    1  UNL1       -0.2118
      7 C          63.9811   87.8406   15.0797 C.ar    1  UNL1        0.2221
      8 N          63.3746   87.4046   13.7790 N.ar    1  UNL1       -0.1942
      9 C          63.2801   85.9447   13.4476 C.ar    1  UNL1        0.1726
     10 N          62.7369   85.2200   12.2519 N.ar    1  UNL1       -0.2113
     11 C          62.1248   85.8556   11.0388 C.ar    1  UNL1        0.1633
     12 C          62.1096   85.1182    9.7327 C.ar    1  UNL1        0.0385
     13 C          61.4976   85.7537    8.5196 C.ar    1  UNL1        0.0001
     14 C          60.9006   87.1266    8.6127 C.ar    1  UNL1       -0.0061
     15 C          60.9158   87.8641    9.9188 C.ar    1  UNL1        0.0807
     16 N          61.5278   87.2286   11.1319 N.ar    1  UNL1       -0.2289
     17 C          60.2566   89.1948    9.7075 C.3     1  UNL1        0.1231
     18 O          59.6597   90.5677    9.8006 O.3     1  UNL1       -0.3812
     19 C          59.8340   89.2798    8.2707 C.3     1  UNL1        0.0374
     20 C          60.2321   88.0016    7.5942 C.3     1  UNL1        0.0304
     21 H          59.7518   90.8995   10.7075 H       1  UNL1        0.2107
     22 C          60.5543   89.3968   11.1637 C.3     1  UNL1        0.0327
     23 C          59.5296   90.0295   12.0580 C.3     1  UNL1        0.0029
     24 N          64.0756   89.3005   15.4112 N.pl3   1  UNL1       -0.2825
     25 H          63.7932   89.6233   16.2974 H       1  UNL1        0.1551
     26 C          64.6004   90.2684   14.3926 C.ar    1  UNL1        0.0505
     27 C          65.9372   90.9182   14.5944 C.ar    1  UNL1        0.0159
     28 C          66.4620   91.8862   13.5756 C.ar    1  UNL1        0.0158
     29 C          65.6500   92.2043   12.3552 C.ar    1  UNL1        0.0480
     30 C          64.3132   91.5545   12.1535 C.ar    1  UNL1        0.0158
     31 C          63.7884   90.5866   13.1721 C.ar    1  UNL1        0.0159
     32 N          66.1748   93.1722   11.3366 N.pl3   1  UNL1       -0.3046
     33 C          67.0563   92.6863   10.2245 C.3     1  UNL1        0.1081
     34 C          67.5811   93.6543    9.2059 C.3     1  UNL1        0.0938
     35 N          67.2243   95.1082    9.2993 N.3     1  UNL1       -0.2686
     36 C          67.7491   96.0761    8.2807 C.3     1  UNL1        0.0897
     37 C          66.3428   95.5942   10.4114 C.3     1  UNL1        0.0938
     38 C          65.8180   94.6263   11.4300 C.3     1  UNL1        0.1081
     39 C          62.5085   82.6538   11.5398 C.3     1  UNL1        0.1553
     40 C          64.6692   82.6109   10.0977 C.2     1  UNL1       -0.0029
     41 C          63.5553   81.8836   10.7908 C.2     1  UNL1        0.0001
@<TRIPOS>BOND
     1    40    41    2
     2    41    39    1
     3    39     1    1
     4     1     2   ar
     5     2     3    2
     6     2     4   ar
     7     4     5   ar
     8     5     6   ar
     9     6     7   ar
    10     7    24    1
    11    24    26    1
    12    26    27   ar
    13    27    28   ar
    14    28    29   ar
    15    29    32    1
    16    32    33    1
    17    33    34    1
    18    34    35    1
    19    35    36    1
    20    35    37    1
    21    37    38    1
    22    29    30   ar
    23    30    31   ar
    24     7     8   ar
    25     8     9   ar
    26     9    10   ar
    27    10    11    1
    28    11    12   ar
    29    12    13   ar
    30    13    14   ar
    31    14    15   ar
    32    15    16   ar
    33    15    17    1
    34    17    18    1
    35    17    22    1
    36    22    23    1
    37    17    19    1
    38    19    20    1
    39    10     1   ar
    40    16    11   ar
    41     9     4   ar
    42    20    14    1
    43    31    26   ar
    44    38    32    1
    45    24    25    1
    46    18    21    1
@<TRIPOS>MOLECULE
*****
 41 46 0 0 0
SMALL
GASTEIGER

@<TRIPOS>ATOM
      1 N          60.9993   86.0000    8.3200 N.ar    1  UNL1       -0.2252
      2 C          60.2791   87.2989    8.1098 C.ar    1  UNL1        0.2800
      3 O          59.5458   87.7094    6.8673 O.2     1  UNL1       -0.2654
      4 C          60.4210   88.1153    9.3602 C.ar    1  UNL1        0.1125
      5 C          59.9190   89.4793    9.7306 C.ar    1  UNL1        0.1097
      6 N          60.2249   90.0490   11.0841 N.ar    1  UNL1       -0.2118
      7 C          61.0327   89.2546   12.0671 C.ar    1  UNL1        0.2221
      8 N          61.5347   87.8905   11.6966 N.ar    1  UNL1       -0.1942
      9 C          61.2289   87.3209   10.3432 C.ar    1  UNL1        0.1726
     10 N          61.5862   86.0136    9.7003 N.ar    1  UNL1       -0.2113
     11 C          62.3895   84.9130   10.3277 C.ar    1  UNL1        0.1633
     12 C          63.3590   84.1252    9.4976 C.ar    1  UNL1        0.0385
     13 C          64.1623   83.0247   10.1249 C.ar    1  UNL1        0.0001
     14 C          63.9961   82.7120   11.5825 C.ar    1  UNL1       -0.0061
     15 C          63.0266   83.4998   12.4127 C.ar    1  UNL1        0.0807
     16 N          62.2233   84.6004   11.7854 N.ar    1  UNL1       -0.2289
     17 C          63.0767   82.9673   13.8141 C.3     1  UNL1        0.1231
     18 O          62.9104   82.6547   15.2717 O.3     1  UNL1       -0.3812
     19 C          64.0773   81.8504   13.8500 C.3     1  UNL1        0.0374
     20 C          64.6455   81.6926   12.4708 C.3     1  UNL1        0.0304
     21 H          62.2505   83.2521   15.6572 H       1  UNL1        0.2107
     22 C          62.0414   84.0189   14.0829 C.3     1  UNL1        0.0327
     23 C          61.9722   84.6764   15.4294 C.3     1  UNL1        0.0029
     24 N          61.3385   89.8243   13.4206 N.pl3   1  UNL1       -0.2825
     25 H          60.6518   89.8132   14.1260 H       1  UNL1        0.1551
     26 C          62.6906   90.4109   13.6994 C.ar    1  UNL1        0.0505
     27 C          63.4730   91.0517   12.5916 C.ar    1  UNL1        0.0159
     28 C          64.8252   91.6383   12.8705 C.ar    1  UNL1        0.0158
     29 C          65.3948   91.5841   14.2570 C.ar    1  UNL1        0.0480
     30 C          64.6123   90.9434   15.3648 C.ar    1  UNL1        0.0158
     31 C          63.2603   90.3568   15.0860 C.ar    1  UNL1        0.0159
     32 N          66.7469   92.1707   14.5358 N.pl3   1  UNL1       -0.3046
     33 C          66.9246   93.1425   15.6645 C.3     1  UNL1        0.1081
     34 C          68.2768   93.7291   15.9433 C.3     1  UNL1        0.0938
     35 N          69.4511   93.3440   15.0933 N.3     1  UNL1       -0.2686
     36 C          70.8032   93.9306   15.3721 C.3     1  UNL1        0.0897
     37 C          69.2734   92.3722   13.9645 C.3     1  UNL1        0.0938
     38 C          67.9213   91.7856   13.6858 C.3     1  UNL1        0.1081
     39 C          61.1125   84.8835    7.3247 C.3     1  UNL1        0.1553
     40 C          62.1125   84.1118    5.0543 C.2     1  UNL1       -0.0029
     41 C          62.2478   84.8648    6.3446 C.2     1  UNL1        0.0001
@<TRIPOS>BOND
     1    40    41    2
     2    41    39    1
     3    39     1    1
     4     1     2   ar
     5     2     3    2
     6     2     4   ar
     7     4     5   ar
     8     5     6   ar
     9     6     7   ar
    10     7    24    1
    11    24    26    1
    12    26    27   ar
    13    27    28   ar
    14    28    29   ar
    15    29    32    1
    16    32    33    1
    17    33    34    1
    18    34    35    1
    19    35    36    1
    20    35    37    1
    21    37    38    1
    22    29    30   ar
    23    30    31   ar
    24     7     8   ar
    25     8     9   ar
    26     9    10   ar
    27    10    11    1
    28    11    12   ar
    29    12    13   ar
    30    13    14   ar
    31    14    15   ar
    32    15    16   ar
    33    15    17    1
    34    17    18    1
    35    17    22    1
    36    22    23    1
    37    17    19    1
    38    19    20    1
    39    10     1   ar
    40    16    11   ar
    41     9     4   ar
    42    20    14    1
    43    31    26   ar
    44    38    32    1
    45    24    25    1
    46    18    21    1
