@<TRIPOS>MOLECULE
*****
 25 28 0 0 0
SMALL
GASTEIGER

@<TRIPOS>ATOM
      1 C          62.4620   89.5447   11.1335 C.2     1  UNL1        0.0958
      2 C          62.5164   90.6077   10.0766 C.2     1  UNL1        0.1049
      3 N          63.4654   91.6732   10.5394 N.2     1  UNL1       -0.2475
      4 C          63.9974   91.2687   11.8823 C.2     1  UNL1        0.0668
      5 C          64.9664   91.9283   12.8181 C.3     1  UNL1        0.1097
      6 C          65.3153   91.2724   14.1212 C.2     1  UNL1        0.1277
      7 C          64.6951   89.9569   14.4884 C.2     1  UNL1        0.0330
      8 C          63.7261   89.2973   13.5526 C.2     1  UNL1        0.0042
      9 C          63.3773   89.9532   12.2495 C.2     1  UNL1        0.0218
     10 O          60.2696   88.2706   11.6992 O.2     1  UNL1       -0.2448
     11 C          61.6370   88.2929   11.0833 C.2     1  UNL1        0.3428
     12 O          62.1797   87.0633   10.4171 O.3     1  UNL1       -0.4454
     13 C          61.7105   85.7062   10.8510 C.3     1  UNL1        0.2087
     14 C          62.7073   84.6163   11.1125 C.3     1  UNL1        0.0445
     15 C          63.0013   84.1907   12.5205 C.3     1  UNL1        0.0210
     16 C          63.9981   83.1008   12.7820 C.3     1  UNL1        0.0722
     17 N          64.7010   82.4364   11.6354 N.3     1  UNL1       -0.2727
     18 C          64.4071   82.8620   10.2274 C.3     1  UNL1        0.0722
     19 C          63.4102   83.9519    9.9660 C.3     1  UNL1        0.0210
     20 C          64.1628   83.0289   11.4426 C.3     1  UNL1        0.0722
     21 C          63.2615   84.0145   11.2061 C.3     1  UNL1        0.0210
     22 O          66.2843   91.9321   15.0572 O.2     1  UNL1       -0.4277
     23 C          67.7596   91.8226   14.8088 C.3     1  UNL1        0.5084
     24 F          68.7245   91.9644   15.9484 F       1  UNL1       -0.1550
     25 F          68.2699   91.5714   13.4208 F       1  UNL1       -0.1550
@<TRIPOS>BOND
     1    10    11    2
     2    11    12    1
     3    12    13    1
     4    13    14    1
     5    14    15    1
     6    15    16    1
     7    16    17    1
     8    17    18    1
     9    18    19    1
    10    17    20    1
    11    20    21    1
    12    11     1    1
    13     1     2    2
    14     2     3    1
    15     3     4    2
    16     4     5    1
    17     5     6    1
    18     6    22    1
    19    22    23    1
    20    23    24    1
    21    23    25    1
    22     6     7    2
    23     7     8    1
    24     8     9    2
    25    19    14    1
    26     9     1    1
    27    21    14    1
    28     9     4    1
@<TRIPOS>MOLECULE
*****
 25 28 0 0 0
SMALL
GASTEIGER

@<TRIPOS>ATOM
      1 C          63.6549   90.9451   11.6898 C.2     1  UNL1        0.0958
      2 C          64.0663   91.8020   10.5294 C.2     1  UNL1        0.1049
      3 N          65.1111   92.7644   11.0114 N.2     1  UNL1       -0.2475
      4 C          65.3454   92.5023   12.4696 C.2     1  UNL1        0.0668
      5 C          66.2620   93.1422   13.4697 C.3     1  UNL1        0.1097
      6 C          66.2786   92.6577   14.8892 C.2     1  UNL1        0.1277
      7 C          65.3787   91.5333   15.3085 C.2     1  UNL1        0.0330
      8 C          64.4621   90.8934   14.3084 C.2     1  UNL1        0.0042
      9 C          64.4455   91.3779   12.8889 C.2     1  UNL1        0.0218
     10 O          61.6143   89.7386   12.7529 O.2     1  UNL1       -0.2448
     11 C          62.6325   89.8481   11.6569 C.2     1  UNL1        0.3428
     12 O          62.6283   88.8603   10.5280 O.3     1  UNL1       -0.4454
     13 C          61.8823   87.5664   10.6663 C.3     1  UNL1        0.2087
     14 C          61.2789   86.9157    9.4570 C.3     1  UNL1        0.0445
     15 C          59.8616   87.2192    9.0706 C.3     1  UNL1        0.0210
     16 C          59.2583   86.5684    7.8613 C.3     1  UNL1        0.0722
     17 N          60.0721   85.6141    7.0383 N.3     1  UNL1       -0.2727
     18 C          61.4893   85.3106    7.4248 C.3     1  UNL1        0.0722
     19 C          62.0927   85.9614    8.6342 C.3     1  UNL1        0.0210
     20 C          60.4459   85.9463    7.6925 C.3     1  UNL1        0.0722
     21 C          60.9916   86.5347    8.7859 C.3     1  UNL1        0.0210
     22 O          67.1953   93.2976   15.8895 O.2     1  UNL1       -0.4277
     23 C          68.6635   93.4030   15.6013 C.3     1  UNL1        0.5084
     24 F          69.4736   94.5001   16.2257 F       1  UNL1       -0.1550
     25 F          69.3218   92.4111   14.6885 F       1  UNL1       -0.1550
@<TRIPOS>BOND
     1    10    11    2
     2    11    12    1
     3    12    13    1
     4    13    14    1
     5    14    15    1
     6    15    16    1
     7    16    17    1
     8    17    18    1
     9    18    19    1
    10    17    20    1
    11    20    21    1
    12    11     1    1
    13     1     2    2
    14     2     3    1
    15     3     4    2
    16     4     5    1
    17     5     6    1
    18     6    22    1
    19    22    23    1
    20    23    24    1
    21    23    25    1
    22     6     7    2
    23     7     8    1
    24     8     9    2
    25    19    14    1
    26     9     1    1
    27    21    14    1
    28     9     4    1
@<TRIPOS>MOLECULE
*****
 25 28 0 0 0
SMALL
GASTEIGER

@<TRIPOS>ATOM
      1 C          63.2458   90.4022   12.7407 C.2     1  UNL1        0.0958
      2 C          63.5812   90.3705   14.2024 C.2     1  UNL1        0.1049
      3 N          64.6832   91.3583   14.4466 N.2     1  UNL1       -0.2475
      4 C          65.0289   92.0005   13.1358 C.2     1  UNL1        0.0668
      5 C          66.0379   93.0471   12.7661 C.3     1  UNL1        0.1097
      6 C          66.1584   93.5026   11.3421 C.2     1  UNL1        0.1277
      7 C          65.2700   92.9117   10.2878 C.2     1  UNL1        0.0330
      8 C          64.2611   91.8652   10.6575 C.2     1  UNL1        0.0042
      9 C          64.1405   91.4096   12.0815 C.2     1  UNL1        0.0218
     10 O          60.7741   89.6322   12.5216 O.2     1  UNL1       -0.2448
     11 C          62.1994   89.5721   12.0581 C.2     1  UNL1        0.3428
     12 O          62.5782   88.6819   10.9117 O.3     1  UNL1       -0.4454
     13 C          62.0762   87.2693   10.8613 C.3     1  UNL1        0.2087
     14 C          61.4592   86.7372    9.6019 C.3     1  UNL1        0.0445
     15 C          62.2544   85.8442    8.6963 C.3     1  UNL1        0.0210
     16 C          61.6372   85.3121    7.4369 C.3     1  UNL1        0.0722
     17 N          60.2249   85.6730    7.0831 N.3     1  UNL1       -0.2727
     18 C          59.4297   86.5660    7.9887 C.3     1  UNL1        0.0722
     19 C          60.0469   87.0982    9.2482 C.3     1  UNL1        0.0210
     20 C          60.5202   85.9889    7.7838 C.3     1  UNL1        0.0722
     21 C          61.0781   86.4701    8.9226 C.3     1  UNL1        0.0210
     22 O          67.1674   94.5492   10.9723 O.2     1  UNL1       -0.4277
     23 C          67.7996   94.5341    9.6120 C.3     1  UNL1        0.5084
     24 F          67.4945   95.6270    8.6310 F       1  UNL1       -0.1550
     25 F          68.7369   93.4260    9.2329 F       1  UNL1       -0.1550
@<TRIPOS>BOND
     1    10    11    2
     2    11    12    1
     3    12    13    1
     4    13    14    1
     5    14    15    1
     6    15    16    1
     7    16    17    1
     8    17    18    1
     9    18    19    1
    10    17    20    1
    11    20    21    1
    12    11     1    1
    13     1     2    2
    14     2     3    1
    15     3     4    2
    16     4     5    1
    17     5     6    1
    18     6    22    1
    19    22    23    1
    20    23    24    1
    21    23    25    1
    22     6     7    2
    23     7     8    1
    24     8     9    2
    25    19    14    1
    26     9     1    1
    27    21    14    1
    28     9     4    1
@<TRIPOS>MOLECULE
*****
 25 28 0 0 0
SMALL
GASTEIGER

@<TRIPOS>ATOM
      1 C          62.4062   87.8655   11.1686 C.2     1  UNL1        0.0958
      2 C          61.9074   88.7777   10.0873 C.2     1  UNL1        0.1049
      3 N          62.3098   90.1788   10.4407 N.2     1  UNL1       -0.2475
      4 C          63.0572   90.1327   11.7404 C.2     1  UNL1        0.0668
      5 C          63.6912   91.2077   12.5723 C.3     1  UNL1        0.1097
      6 C          64.3848   90.8531   13.8541 C.2     1  UNL1        0.1277
      7 C          64.4444   89.4234   14.3040 C.2     1  UNL1        0.0330
      8 C          63.8104   88.3484   13.4721 C.2     1  UNL1        0.0042
      9 C          63.1168   88.7030   12.1903 C.2     1  UNL1        0.0218
     10 O          62.2991   85.5694    9.9577 O.2     1  UNL1       -0.2448
     11 C          62.2260   86.3773   11.2194 C.2     1  UNL1        0.3428
     12 O          61.9727   85.6968   12.5320 O.3     1  UNL1       -0.4454
     13 C          62.9940   84.7553   13.0981 C.3     1  UNL1        0.2087
     14 C          62.7389   83.2772   13.0872 C.3     1  UNL1        0.0445
     15 C          63.1994   82.4452   11.9272 C.3     1  UNL1        0.0210
     16 C          62.9443   80.9671   11.9163 C.3     1  UNL1        0.0722
     17 N          62.2286   80.3209   13.0654 N.3     1  UNL1       -0.2727
     18 C          61.7681   81.1530   14.2254 C.3     1  UNL1        0.0722
     19 C          62.0233   82.6312   14.2363 C.3     1  UNL1        0.0210
     20 C          62.3456   81.1344   13.1161 C.3     1  UNL1        0.0722
     21 C          62.5763   82.4710   13.1261 C.3     1  UNL1        0.0210
     22 O          65.0189   91.9283   14.6862 O.2     1  UNL1       -0.4277
     23 C          66.3012   92.5649   14.2385 C.3     1  UNL1        0.5084
     24 F          66.4136   94.0592   14.1726 F       1  UNL1       -0.1550
     25 F          67.4710   91.7071   13.8567 F       1  UNL1       -0.1550
@<TRIPOS>BOND
     1    10    11    2
     2    11    12    1
     3    12    13    1
     4    13    14    1
     5    14    15    1
     6    15    16    1
     7    16    17    1
     8    17    18    1
     9    18    19    1
    10    17    20    1
    11    20    21    1
    12    11     1    1
    13     1     2    2
    14     2     3    1
    15     3     4    2
    16     4     5    1
    17     5     6    1
    18     6    22    1
    19    22    23    1
    20    23    24    1
    21    23    25    1
    22     6     7    2
    23     7     8    1
    24     8     9    2
    25    19    14    1
    26     9     1    1
    27    21    14    1
    28     9     4    1
@<TRIPOS>MOLECULE
*****
 25 28 0 0 0
SMALL
GASTEIGER

@<TRIPOS>ATOM
      1 C          63.8060   87.4210   13.6845 C.2     1  UNL1        0.0958
      2 C          64.1118   88.8789   13.8611 C.2     1  UNL1        0.1049
      3 N          63.5224   89.6202   12.6979 N.2     1  UNL1       -0.2475
      4 C          62.8525   88.6206   11.8024 C.2     1  UNL1        0.0668
      5 C          62.1055   88.7724   10.5106 C.3     1  UNL1        0.1097
      6 C          61.5338   87.5650    9.8285 C.2     1  UNL1        0.1277
      7 C          61.7090   86.2058   10.4383 C.2     1  UNL1        0.0330
      8 C          62.4560   86.0540   11.7301 C.2     1  UNL1        0.0042
      9 C          63.0278   87.2614   12.4122 C.2     1  UNL1        0.0218
     10 O          65.6568   86.0931   14.9340 O.2     1  UNL1       -0.2448
     11 C          64.2080   86.3166   14.6166 C.2     1  UNL1        0.3428
     12 O          63.1610   85.4357   15.2313 O.3     1  UNL1       -0.4454
     13 C          63.4185   83.9671   15.3955 C.3     1  UNL1        0.2087
     14 C          63.2386   83.0394   14.2307 C.3     1  UNL1        0.0445
     15 C          62.1442   82.0137   14.2507 C.3     1  UNL1        0.0210
     16 C          61.9644   81.0860   13.0858 C.3     1  UNL1        0.0722
     17 N          62.8788   81.1840   11.9008 N.3     1  UNL1       -0.2727
     18 C          63.9732   82.2096   11.8807 C.3     1  UNL1        0.0722
     19 C          64.1531   83.1374   13.0457 C.3     1  UNL1        0.0210
     20 C          63.0164   81.7141   12.5157 C.3     1  UNL1        0.0722
     21 C          63.1791   82.5529   13.5689 C.3     1  UNL1        0.0210
     22 O          60.7867   87.7168    8.5366 O.2     1  UNL1       -0.4277
     23 C          60.0816   86.5374    7.9350 C.3     1  UNL1        0.5084
     24 F          60.8753   85.4145    7.3359 F       1  UNL1       -0.1550
     25 F          58.5826   86.4810    7.9325 F       1  UNL1       -0.1550
@<TRIPOS>BOND
     1    10    11    2
     2    11    12    1
     3    12    13    1
     4    13    14    1
     5    14    15    1
     6    15    16    1
     7    16    17    1
     8    17    18    1
     9    18    19    1
    10    17    20    1
    11    20    21    1
    12    11     1    1
    13     1     2    2
    14     2     3    1
    15     3     4    2
    16     4     5    1
    17     5     6    1
    18     6    22    1
    19    22    23    1
    20    23    24    1
    21    23    25    1
    22     6     7    2
    23     7     8    1
    24     8     9    2
    25    19    14    1
    26     9     1    1
    27    21    14    1
    28     9     4    1
@<TRIPOS>MOLECULE
*****
 25 28 0 0 0
SMALL
GASTEIGER

@<TRIPOS>ATOM
      1 C          63.3391   89.3090   12.4954 C.2     1  UNL1        0.0958
      2 C          62.5601   88.9237   11.2728 C.2     1  UNL1        0.1049
      3 N          62.3954   87.4328   11.2790 N.2     1  UNL1       -0.2475
      4 C          63.0726   86.8967   12.5054 C.2     1  UNL1        0.0668
      5 C          63.2335   85.5025   13.0347 C.3     1  UNL1        0.1097
      6 C          63.9777   85.2678   14.3157 C.2     1  UNL1        0.1277
      7 C          64.5610   86.4274   15.0675 C.2     1  UNL1        0.0330
      8 C          64.4001   87.8217   14.5382 C.2     1  UNL1        0.0042
      9 C          63.6559   88.0563   13.2572 C.2     1  UNL1        0.0218
     10 O          63.5353   91.1682   14.2995 O.2     1  UNL1       -0.2448
     11 C          63.7323   90.7025   12.8874 C.2     1  UNL1        0.3428
     12 O          64.3226   91.6303   11.8671 O.3     1  UNL1       -0.4454
     13 C          65.5626   92.4099   12.1908 C.3     1  UNL1        0.2087
     14 C          66.3266   93.0925   11.0952 C.3     1  UNL1        0.0445
     15 C          66.0045   94.5106   10.7273 C.3     1  UNL1        0.0210
     16 C          66.7684   95.1932    9.6317 C.3     1  UNL1        0.0722
     17 N          67.8546   94.4578    8.9040 N.3     1  UNL1       -0.2727
     18 C          68.1767   93.0398    9.2718 C.3     1  UNL1        0.0722
     19 C          67.4126   92.3571   10.3675 C.3     1  UNL1        0.0210
     20 C          67.4633   94.0420    9.4973 C.3     1  UNL1        0.0722
     21 C          66.7725   93.4247   10.4879 C.3     1  UNL1        0.0210
     22 O          64.1387   83.8735   14.8451 O.2     1  UNL1       -0.4277
     23 C          63.3826   82.7407   14.2164 C.3     1  UNL1        0.5084
     24 F          61.9836   82.4341   14.6620 F       1  UNL1       -0.1550
     25 F          64.0257   81.9146   13.1422 F       1  UNL1       -0.1550
@<TRIPOS>BOND
     1    10    11    2
     2    11    12    1
     3    12    13    1
     4    13    14    1
     5    14    15    1
     6    15    16    1
     7    16    17    1
     8    17    18    1
     9    18    19    1
    10    17    20    1
    11    20    21    1
    12    11     1    1
    13     1     2    2
    14     2     3    1
    15     3     4    2
    16     4     5    1
    17     5     6    1
    18     6    22    1
    19    22    23    1
    20    23    24    1
    21    23    25    1
    22     6     7    2
    23     7     8    1
    24     8     9    2
    25    19    14    1
    26     9     1    1
    27    21    14    1
    28     9     4    1
@<TRIPOS>MOLECULE
*****
 25 28 0 0 0
SMALL
GASTEIGER

@<TRIPOS>ATOM
      1 C          62.9732   86.9084   12.2899 C.2     1  UNL1        0.0958
      2 C          62.0956   86.8435   11.0752 C.2     1  UNL1        0.1049
      3 N          61.8497   85.3982   10.7578 N.2     1  UNL1       -0.2475
      4 C          62.5753   84.5699   11.7764 C.2     1  UNL1        0.0668
      5 C          62.6934   83.0865   11.9641 C.3     1  UNL1        0.1097
      6 C          63.5059   82.5364   13.0986 C.2     1  UNL1        0.1277
      7 C          64.2003   83.4698   14.0455 C.2     1  UNL1        0.0330
      8 C          64.0822   84.9533   13.8578 C.2     1  UNL1        0.0042
      9 C          63.2697   85.5034   12.7233 C.2     1  UNL1        0.0218
     10 O          64.1403   88.0814   14.2929 O.2     1  UNL1       -0.2448
     11 C          63.4676   88.1590   12.9546 C.2     1  UNL1        0.3428
     12 O          63.2891   89.4873   12.2808 O.3     1  UNL1       -0.4454
     13 C          63.4493   90.7546   13.0670 C.3     1  UNL1        0.2087
     14 C          64.7922   91.4167   13.1569 C.3     1  UNL1        0.0445
     15 C          65.6810   91.1534   14.3361 C.3     1  UNL1        0.0210
     16 C          67.0239   91.8156   14.4259 C.3     1  UNL1        0.0722
     17 N          67.4781   92.7411   13.3363 N.3     1  UNL1       -0.2727
     18 C          66.5894   93.0045   12.1571 C.3     1  UNL1        0.0722
     19 C          65.2464   92.3423   12.0673 C.3     1  UNL1        0.0210
     20 C          66.7339   92.4014   13.2432 C.3     1  UNL1        0.0722
     21 C          65.5196   91.8027   13.1619 C.3     1  UNL1        0.0210
     22 O          63.6241   81.0528   13.2863 O.2     1  UNL1       -0.4277
     23 C          62.4638   80.1606   12.9582 C.3     1  UNL1        0.5084
     24 F          61.2144   80.2201   13.7860 F       1  UNL1       -0.1550
     25 F          62.5530   79.2088   11.8022 F       1  UNL1       -0.1550
@<TRIPOS>BOND
     1    10    11    2
     2    11    12    1
     3    12    13    1
     4    13    14    1
     5    14    15    1
     6    15    16    1
     7    16    17    1
     8    17    18    1
     9    18    19    1
    10    17    20    1
    11    20    21    1
    12    11     1    1
    13     1     2    2
    14     2     3    1
    15     3     4    2
    16     4     5    1
    17     5     6    1
    18     6    22    1
    19    22    23    1
    20    23    24    1
    21    23    25    1
    22     6     7    2
    23     7     8    1
    24     8     9    2
    25    19    14    1
    26     9     1    1
    27    21    14    1
    28     9     4    1
@<TRIPOS>MOLECULE
*****
 25 28 0 0 0
SMALL
GASTEIGER

@<TRIPOS>ATOM
      1 C          61.0953   86.2285    8.7931 C.2     1  UNL1        0.0958
      2 C          61.7094   85.6981    7.5316 C.2     1  UNL1        0.1049
      3 N          62.8377   84.7863    7.9132 N.2     1  UNL1       -0.2475
      4 C          62.9208   84.7531    9.4105 C.2     1  UNL1        0.0668
      5 C          63.8380   84.0265   10.3490 C.3     1  UNL1        0.1097
      6 C          63.6782   84.1912   11.8313 C.2     1  UNL1        0.1277
      7 C          62.6013   85.0825   12.3752 C.2     1  UNL1        0.0330
      8 C          61.6842   85.8091   11.4367 C.2     1  UNL1        0.0042
      9 C          61.8439   85.6445    9.9544 C.2     1  UNL1        0.0218
     10 O          58.7202   86.9529    8.0289 O.2     1  UNL1       -0.2448
     11 C          59.9359   87.1764    8.8785 C.2     1  UNL1        0.3428
     12 O          59.9924   88.3481    9.8135 O.3     1  UNL1       -0.4454
     13 C          60.8503   89.5327    9.4806 C.3     1  UNL1        0.2087
     14 C          61.8969   89.9966   10.4497 C.3     1  UNL1        0.0445
     15 C          61.9366   89.4312   11.8385 C.3     1  UNL1        0.0210
     16 C          62.9833   89.8952   12.8075 C.3     1  UNL1        0.0722
     17 N          63.9903   90.9247   12.3879 N.3     1  UNL1       -0.2727
     18 C          63.9506   91.4902   10.9992 C.3     1  UNL1        0.0722
     19 C          62.9039   91.0261   10.0300 C.3     1  UNL1        0.0210
     20 C          63.4356   90.7014   11.8219 C.3     1  UNL1        0.0722
     21 C          62.4892   90.2819   10.9455 C.3     1  UNL1        0.0210
     22 O          64.5954   83.4645   12.7699 O.2     1  UNL1       -0.4277
     23 C          64.7224   83.9166   14.1945 C.3     1  UNL1        0.5084
     24 F          64.2050   83.0511   15.3049 F       1  UNL1       -0.1550
     25 F          65.3667   85.2343   14.5086 F       1  UNL1       -0.1550
@<TRIPOS>BOND
     1    10    11    2
     2    11    12    1
     3    12    13    1
     4    13    14    1
     5    14    15    1
     6    15    16    1
     7    16    17    1
     8    17    18    1
     9    18    19    1
    10    17    20    1
    11    20    21    1
    12    11     1    1
    13     1     2    2
    14     2     3    1
    15     3     4    2
    16     4     5    1
    17     5     6    1
    18     6    22    1
    19    22    23    1
    20    23    24    1
    21    23    25    1
    22     6     7    2
    23     7     8    1
    24     8     9    2
    25    19    14    1
    26     9     1    1
    27    21    14    1
    28     9     4    1
@<TRIPOS>MOLECULE
*****
 25 28 0 0 0
SMALL
GASTEIGER

@<TRIPOS>ATOM
      1 C          62.1690   90.1633   11.7594 C.2     1  UNL1        0.0958
      2 C          61.9396   89.5085   13.0893 C.2     1  UNL1        0.1049
      3 N          63.0683   89.8964   13.9978 N.2     1  UNL1       -0.2475
      4 C          63.9954   90.7910   13.2295 C.2     1  UNL1        0.0668
      5 C          65.2738   91.4766   13.6108 C.3     1  UNL1        0.1097
      6 C          65.9964   92.3272   12.6087 C.2     1  UNL1        0.1277
      7 C          65.4406   92.4922   11.2253 C.2     1  UNL1        0.0330
      8 C          64.1622   91.8065   10.8439 C.2     1  UNL1        0.0042
      9 C          63.4396   90.9559   11.8460 C.2     1  UNL1        0.0218
     10 O          59.9888   90.8015   10.4987 O.2     1  UNL1       -0.2448
     11 C          61.2834   90.0461   10.5544 C.2     1  UNL1        0.3428
     12 O          61.6925   89.1733    9.4050 O.3     1  UNL1       -0.4454
     13 C          61.0612   87.8245    9.2257 C.3     1  UNL1        0.2087
     14 C          61.7773   86.5930    9.6951 C.3     1  UNL1        0.0445
     15 C          61.6606   86.1568   11.1255 C.3     1  UNL1        0.0210
     16 C          62.3768   84.9252   11.5949 C.3     1  UNL1        0.0722
     17 N          63.2097   84.1297   10.6339 N.3     1  UNL1       -0.2727
     18 C          63.3265   84.5659    9.2035 C.3     1  UNL1        0.0722
     19 C          62.6103   85.7976    8.7341 C.3     1  UNL1        0.0210
     20 C          62.8357   84.7976   10.3303 C.3     1  UNL1        0.0722
     21 C          62.1882   85.9112    9.9058 C.3     1  UNL1        0.0210
     22 O          67.2749   93.0129   12.9900 O.2     1  UNL1       -0.4277
     23 C          67.7484   92.9796   14.4129 C.3     1  UNL1        0.5084
     24 F          69.0934   92.4032   14.7425 F       1  UNL1       -0.1550
     25 F          66.8767   93.5226   15.5063 F       1  UNL1       -0.1550
@<TRIPOS>BOND
     1    10    11    2
     2    11    12    1
     3    12    13    1
     4    13    14    1
     5    14    15    1
     6    15    16    1
     7    16    17    1
     8    17    18    1
     9    18    19    1
    10    17    20    1
    11    20    21    1
    12    11     1    1
    13     1     2    2
    14     2     3    1
    15     3     4    2
    16     4     5    1
    17     5     6    1
    18     6    22    1
    19    22    23    1
    20    23    24    1
    21    23    25    1
    22     6     7    2
    23     7     8    1
    24     8     9    2
    25    19    14    1
    26     9     1    1
    27    21    14    1
    28     9     4    1
