@<TRIPOS>MOLECULE
*****
 42 46 0 0 0
SMALL
GASTEIGER

@<TRIPOS>ATOM
      1 C          62.1703   86.9990   10.7926 C.3     1  UNL1        0.1605
      2 F          63.2832   81.9393   10.3926 F       1  UNL1       -0.2041
      3 C          63.2646   83.2056   11.1962 C.ar    1  UNL1        0.1430
      4 C          63.7837   83.2086   12.6035 C.ar    1  UNL1        0.0667
      5 C          63.7651   84.4749   13.4071 C.ar    1  UNL1        0.1462
      6 C          63.2273   85.7385   12.8035 C.ar    1  UNL1        0.0363
      7 C          62.7081   85.7356   11.3962 C.ar    1  UNL1        0.0190
      8 C          62.7268   84.4691   10.5926 C.ar    1  UNL1        0.0289
      9 O          64.2843   84.4779   14.8145 O.3     1  UNL1       -0.4263
     10 C          63.7574   85.4724   15.8061 C.3     1  UNL1        0.4723
     11 F          64.8629   86.4193   15.4439 F       1  UNL1       -0.1579
     12 F          62.6519   84.5255   16.1682 F       1  UNL1       -0.1579
     13 C          63.2305   86.4669   16.7977 C.3     1  UNL1        0.4202
     14 F          63.4120   87.9360   16.5552 F       1  UNL1       -0.1876
     15 F          62.5220   85.9923   18.0317 F       1  UNL1       -0.1876
     16 C          62.0033   86.2991    9.4764 C.ar    1  UNL1        0.0937
     17 C          63.2034   85.7593    8.7565 C.ar    1  UNL1        0.0190
     18 C          63.0366   85.0593    7.4404 C.ar    1  UNL1        0.0143
     19 C          61.6695   84.8991    6.8442 C.ar    1  UNL1        0.0768
     20 CL         61.5025   84.1992    5.5281 Cl      1  UNL1       -0.0806
     21 C          60.4693   85.4389    7.5641 C.ar    1  UNL1        0.1099
     22 N          60.6362   86.1389    8.8802 N.ar    1  UNL1       -0.2439
     23 N          62.3373   87.6989   12.1088 N.pl3   1  UNL1       -0.2174
     24 H          61.9071   87.3369   12.9169 H       1  UNL1        0.2460
     25 C          63.1599   88.9504   12.1936 C.cat   1  UNL1        0.4204
     26 N          63.3714   89.9429   11.0891 N.2     1  UNL1       -0.0678
     27 C          64.2576   91.0350   11.6107 C.2     1  UNL1        0.1937
     28 C          64.8019   92.2777   10.9707 C.2     1  UNL1        0.0693
     29 C          65.6824   93.2027   11.7577 C.2     1  UNL1        0.1420
     30 F          66.2267   94.4453   11.1178 F       1  UNL1       -0.2043
     31 C          66.0184   92.8850   13.1846 C.2     1  UNL1        0.0459
     32 C          65.4741   91.6423   13.8246 C.3     1  UNL1        0.2444
     33 F          65.8103   91.3247   15.2516 F       1  UNL1       -0.2241
     34 C          64.5938   90.7174   13.0377 C.2     1  UNL1        0.2068
     35 N          63.9153   89.4290   13.3980 N.2     1  UNL1       -0.0689
     36 C          61.6325   88.2625   10.1889 C.3     1  UNL1        0.0705
     37 C          60.5030   88.9906   10.8554 C.ar    1  UNL1       -0.0184
     38 C          60.2903   90.4510   10.5872 C.ar    1  UNL1       -0.0041
     39 C          59.1608   91.1791   11.2536 C.ar    1  UNL1       -0.0003
     40 C          58.2441   90.4469   12.1882 C.ar    1  UNL1       -0.0000
     41 C          58.4569   88.9865   12.4564 C.ar    1  UNL1       -0.0003
     42 C          59.5863   88.2583   11.7900 C.ar    1  UNL1       -0.0041
@<TRIPOS>BOND
     1     2     3    1
     2     3     4   ar
     3     4     5   ar
     4     5     9    1
     5     9    10    1
     6    10    11    1
     7    10    12    1
     8    10    13    1
     9    13    14    1
    10    13    15    1
    11     5     6   ar
    12     6     7   ar
    13     7     1    1
    14     1    36    1
    15    36    37    1
    16    37    38   ar
    17    38    39   ar
    18    39    40   ar
    19    40    41   ar
    20    41    42   ar
    21     1    23    1
    22    23    25    1
    23    25    26    2
    24    26    27    1
    25    27    28    2
    26    28    29    1
    27    29    30    1
    28    29    31    2
    29    31    32    1
    30    32    33    1
    31    32    34    1
    32    34    35    2
    33     1    16    1
    34    16    17   ar
    35    17    18   ar
    36    18    19   ar
    37    19    20    1
    38    19    21   ar
    39    21    22   ar
    40     7     8   ar
    41     8     3   ar
    42    42    37   ar
    43    35    25    1
    44    22    16   ar
    45    34    27    1
    46    23    24    1
@<TRIPOS>MOLECULE
*****
 42 46 0 0 0
SMALL
GASTEIGER

@<TRIPOS>ATOM
      1 C          63.5948   90.6765   14.3201 C.3     1  UNL1        0.1605
      2 F          62.3525   91.0766    9.2906 F       1  UNL1       -0.2041
      3 C          63.2404   91.4435   10.4424 C.ar    1  UNL1        0.1430
      4 C          64.3951   92.3774   10.2315 C.ar    1  UNL1        0.0667
      5 C          65.2830   92.7443   11.3834 C.ar    1  UNL1        0.1462
      6 C          65.0163   92.1773   12.7463 C.ar    1  UNL1        0.0363
      7 C          63.8616   91.2434   12.9573 C.ar    1  UNL1        0.0190
      8 C          62.9736   90.8765   11.8053 C.ar    1  UNL1        0.0289
      9 O          66.4378   93.6782   11.1725 O.3     1  UNL1       -0.4263
     10 C          67.3844   93.4544   10.0306 C.3     1  UNL1        0.4723
     11 F          67.0309   94.8016    9.4736 F       1  UNL1       -0.1579
     12 F          67.7378   92.1073   10.5877 F       1  UNL1       -0.1579
     13 C          68.3310   93.2307    8.8887 C.3     1  UNL1        0.4202
     14 F          69.5178   92.3302    9.0638 F       1  UNL1       -0.1876
     15 F          68.0907   93.9073    7.5718 F       1  UNL1       -0.1876
     16 C          64.9378   91.1583   14.7833 C.ar    1  UNL1        0.0937
     17 C          66.1879   90.5692   14.2000 C.ar    1  UNL1        0.0190
     18 C          67.5309   91.0509   14.6631 C.ar    1  UNL1        0.0143
     19 C          67.6237   92.1217   15.7093 C.ar    1  UNL1        0.0768
     20 CL         68.9666   92.6035   16.1724 Cl      1  UNL1       -0.0806
     21 C          66.3736   92.7109   16.2926 C.ar    1  UNL1        0.1099
     22 N          65.0306   92.2292   15.8295 N.ar    1  UNL1       -0.2439
     23 N          62.2520   90.1948   13.8569 N.pl3   1  UNL1       -0.2174
     24 H          61.4314   90.5833   14.2377 H       1  UNL1        0.2460
     25 C          62.1593   89.1212   12.8135 C.cat   1  UNL1        0.4204
     26 N          63.1142   87.9778   12.6378 N.2     1  UNL1       -0.0678
     27 C          62.6406   87.1524   11.4783 C.2     1  UNL1        0.1937
     28 C          63.1842   85.9059   10.8451 C.2     1  UNL1        0.0693
     29 C          62.4801   85.2927    9.6710 C.2     1  UNL1        0.1420
     30 F          63.0236   84.0463    9.0378 F       1  UNL1       -0.2043
     31 C          61.2325   85.9260    9.1302 C.2     1  UNL1        0.0459
     32 C          60.6890   87.1724    9.7635 C.3     1  UNL1        0.2444
     33 F          59.4413   87.8057    9.2226 F       1  UNL1       -0.2241
     34 C          61.3930   87.7856   10.9374 C.2     1  UNL1        0.2068
     35 N          61.0955   89.0024   11.7627 N.2     1  UNL1       -0.0689
     36 C          63.3282   90.1096   15.6830 C.3     1  UNL1        0.0705
     37 C          63.4831   88.6377   15.9266 C.ar    1  UNL1       -0.0184
     38 C          64.3787   87.8214   15.0425 C.ar    1  UNL1       -0.0041
     39 C          64.5336   86.3494   15.2860 C.ar    1  UNL1       -0.0003
     40 C          63.7930   85.6938   16.4137 C.ar    1  UNL1       -0.0000
     41 C          62.8975   86.5101   17.2978 C.ar    1  UNL1       -0.0003
     42 C          62.7426   87.9820   17.0543 C.ar    1  UNL1       -0.0041
@<TRIPOS>BOND
     1     2     3    1
     2     3     4   ar
     3     4     5   ar
     4     5     9    1
     5     9    10    1
     6    10    11    1
     7    10    12    1
     8    10    13    1
     9    13    14    1
    10    13    15    1
    11     5     6   ar
    12     6     7   ar
    13     7     1    1
    14     1    36    1
    15    36    37    1
    16    37    38   ar
    17    38    39   ar
    18    39    40   ar
    19    40    41   ar
    20    41    42   ar
    21     1    23    1
    22    23    25    1
    23    25    26    2
    24    26    27    1
    25    27    28    2
    26    28    29    1
    27    29    30    1
    28    29    31    2
    29    31    32    1
    30    32    33    1
    31    32    34    1
    32    34    35    2
    33     1    16    1
    34    16    17   ar
    35    17    18   ar
    36    18    19   ar
    37    19    20    1
    38    19    21   ar
    39    21    22   ar
    40     7     8   ar
    41     8     3   ar
    42    42    37   ar
    43    35    25    1
    44    22    16   ar
    45    34    27    1
    46    23    24    1
@<TRIPOS>MOLECULE
*****
 42 46 0 0 0
SMALL
GASTEIGER

@<TRIPOS>ATOM
      1 C          63.7719   90.8617   14.2229 C.3     1  UNL1        0.1605
      2 F          62.8677   91.3749    9.1318 F       1  UNL1       -0.2041
      3 C          63.6722   91.7208   10.3496 C.ar    1  UNL1        0.1430
      4 C          64.8291   92.6692   10.2398 C.ar    1  UNL1        0.0667
      5 C          65.6336   93.0151   11.4575 C.ar    1  UNL1        0.1462
      6 C          65.2812   92.4126   12.7853 C.ar    1  UNL1        0.0363
      7 C          64.1243   91.4642   12.8952 C.ar    1  UNL1        0.0190
      8 C          63.3198   91.1183   11.6773 C.ar    1  UNL1        0.0289
      9 O          66.7906   93.9635   11.3477 O.3     1  UNL1       -0.4263
     10 C          66.9805   94.7734   10.0995 C.3     1  UNL1        0.4723
     11 F          68.0188   93.8000    9.6258 F       1  UNL1       -0.1579
     12 F          65.9422   95.7468   10.5732 F       1  UNL1       -0.1579
     13 C          67.1704   95.5833    8.8513 C.3     1  UNL1        0.4202
     14 F          66.5618   95.1242    7.5595 F       1  UNL1       -0.1876
     15 F          67.9690   96.8523    8.8949 F       1  UNL1       -0.1876
     16 C          65.1092   91.2725   14.7641 C.ar    1  UNL1        0.0937
     17 C          66.3632   90.6755   14.1973 C.ar    1  UNL1        0.0190
     18 C          67.7005   91.0862   14.7385 C.ar    1  UNL1        0.0143
     19 C          67.7839   92.0940   15.8464 C.ar    1  UNL1        0.0768
     20 CL         69.1212   92.5047   16.3875 Cl      1  UNL1       -0.0806
     21 C          66.5300   92.6910   16.4131 C.ar    1  UNL1        0.1099
     22 N          65.1927   92.2803   15.8720 N.ar    1  UNL1       -0.2439
     23 N          62.4346   90.4510   13.6816 N.pl3   1  UNL1       -0.2174
     24 H          61.6192   90.9148   13.9801 H       1  UNL1        0.2460
     25 C          62.3398   89.3335   12.6855 C.cat   1  UNL1        0.4204
     26 N          61.6171   89.3822   11.3720 N.2     1  UNL1       -0.0678
     27 C          61.7817   88.0500   10.7027 C.2     1  UNL1        0.1937
     28 C          61.2873   87.5182    9.3901 C.2     1  UNL1        0.0693
     29 C          61.6175   86.1144    8.9774 C.2     1  UNL1        0.1420
     30 F          61.1231   85.5826    7.6648 F       1  UNL1       -0.2043
     31 C          62.4420   85.2423    9.8772 C.2     1  UNL1        0.0459
     32 C          62.9363   85.7741   11.1897 C.3     1  UNL1        0.2444
     33 F          63.7609   84.9020   12.0896 F       1  UNL1       -0.2241
     34 C          62.6062   87.1778   11.6025 C.2     1  UNL1        0.2068
     35 N          62.9512   87.9711   12.8280 N.2     1  UNL1       -0.0689
     36 C          63.4196   90.2593   15.5506 C.3     1  UNL1        0.0705
     37 C          63.5954   88.7868   15.7765 C.ar    1  UNL1       -0.0184
     38 C          62.8535   88.1047   16.8875 C.ar    1  UNL1       -0.0041
     39 C          63.0293   86.6323   17.1134 C.ar    1  UNL1       -0.0003
     40 C          63.9470   85.8420   16.2284 C.ar    1  UNL1       -0.0000
     41 C          64.6889   86.5241   15.1174 C.ar    1  UNL1       -0.0003
     42 C          64.5131   87.9966   14.8915 C.ar    1  UNL1       -0.0041
@<TRIPOS>BOND
     1     2     3    1
     2     3     4   ar
     3     4     5   ar
     4     5     9    1
     5     9    10    1
     6    10    11    1
     7    10    12    1
     8    10    13    1
     9    13    14    1
    10    13    15    1
    11     5     6   ar
    12     6     7   ar
    13     7     1    1
    14     1    36    1
    15    36    37    1
    16    37    38   ar
    17    38    39   ar
    18    39    40   ar
    19    40    41   ar
    20    41    42   ar
    21     1    23    1
    22    23    25    1
    23    25    26    2
    24    26    27    1
    25    27    28    2
    26    28    29    1
    27    29    30    1
    28    29    31    2
    29    31    32    1
    30    32    33    1
    31    32    34    1
    32    34    35    2
    33     1    16    1
    34    16    17   ar
    35    17    18   ar
    36    18    19   ar
    37    19    20    1
    38    19    21   ar
    39    21    22   ar
    40     7     8   ar
    41     8     3   ar
    42    42    37   ar
    43    35    25    1
    44    22    16   ar
    45    34    27    1
    46    23    24    1
@<TRIPOS>MOLECULE
*****
 42 46 0 0 0
SMALL
GASTEIGER

@<TRIPOS>ATOM
      1 C          63.4304   90.4974   14.2472 C.3     1  UNL1        0.1605
      2 F          62.6821   87.7662   18.6039 F       1  UNL1       -0.2041
      3 C          63.2071   87.8571   17.2018 C.ar    1  UNL1        0.1430
      4 C          63.8828   86.6733   16.5757 C.ar    1  UNL1        0.0667
      5 C          64.4077   86.7641   15.1735 C.ar    1  UNL1        0.1462
      6 C          64.2569   88.0389   14.3973 C.ar    1  UNL1        0.0363
      7 C          63.5812   89.2227   15.0234 C.ar    1  UNL1        0.0190
      8 C          63.0562   89.1318   16.4256 C.ar    1  UNL1        0.0289
      9 O          65.0835   85.5803   14.5474 O.3     1  UNL1       -0.4263
     10 C          64.2698   84.4028   14.0988 C.3     1  UNL1        0.4723
     11 F          63.8599   85.1552   12.8676 F       1  UNL1       -0.1579
     12 F          64.6798   83.6505   15.3300 F       1  UNL1       -0.1579
     13 C          63.4560   83.2253   13.6501 C.3     1  UNL1        0.4202
     14 F          63.7104   81.8696   14.2395 F       1  UNL1       -0.1876
     15 F          62.3879   83.4036   12.6122 F       1  UNL1       -0.1876
     16 C          64.7835   90.9432   14.7167 C.ar    1  UNL1        0.0937
     17 C          66.0206   90.3441   14.1161 C.ar    1  UNL1        0.0190
     18 C          67.3737   90.7898   14.5855 C.ar    1  UNL1        0.0143
     19 C          67.4898   91.8346   15.6554 C.ar    1  UNL1        0.0768
     20 CL         68.8429   92.2804   16.1249 Cl      1  UNL1       -0.0806
     21 C          66.2527   92.4338   16.2560 C.ar    1  UNL1        0.1099
     22 N          64.8996   91.9881   15.7866 N.ar    1  UNL1       -0.2439
     23 N          62.0773   90.0515   13.7778 N.pl3   1  UNL1       -0.2174
     24 H          61.2750   90.2798   14.3007 H       1  UNL1        0.2460
     25 C          61.9467   89.2577   12.5118 C.cat   1  UNL1        0.4204
     26 N          62.6890   87.9969   12.1812 N.2     1  UNL1       -0.0678
     27 C          62.2519   87.5453   10.8193 C.2     1  UNL1        0.1937
     28 C          62.6451   86.3669    9.9783 C.2     1  UNL1        0.0693
     29 C          62.0257   86.1703    8.6264 C.2     1  UNL1        0.1420
     30 F          62.4188   84.9920    7.7855 F       1  UNL1       -0.2043
     31 C          61.0132   87.1520    8.1153 C.2     1  UNL1        0.0459
     32 C          60.6201   88.3303    8.9562 C.3     1  UNL1        0.2444
     33 F          59.6076   89.3119    8.4451 F       1  UNL1       -0.2241
     34 C          61.2394   88.5269   10.3081 C.2     1  UNL1        0.2068
     35 N          61.0508   89.5853   11.3542 N.2     1  UNL1       -0.0689
     36 C          63.2797   91.7721   13.4711 C.3     1  UNL1        0.0705
     37 C          64.2793   92.1272   12.4106 C.ar    1  UNL1       -0.0184
     38 C          64.1589   91.5346   11.0379 C.ar    1  UNL1       -0.0041
     39 C          65.1585   91.8897    9.9774 C.ar    1  UNL1       -0.0003
     40 C          66.2785   92.8374   10.2897 C.ar    1  UNL1       -0.0000
     41 C          66.3989   93.4300   11.6624 C.ar    1  UNL1       -0.0003
     42 C          65.3993   93.0749   12.7229 C.ar    1  UNL1       -0.0041
@<TRIPOS>BOND
     1     2     3    1
     2     3     4   ar
     3     4     5   ar
     4     5     9    1
     5     9    10    1
     6    10    11    1
     7    10    12    1
     8    10    13    1
     9    13    14    1
    10    13    15    1
    11     5     6   ar
    12     6     7   ar
    13     7     1    1
    14     1    36    1
    15    36    37    1
    16    37    38   ar
    17    38    39   ar
    18    39    40   ar
    19    40    41   ar
    20    41    42   ar
    21     1    23    1
    22    23    25    1
    23    25    26    2
    24    26    27    1
    25    27    28    2
    26    28    29    1
    27    29    30    1
    28    29    31    2
    29    31    32    1
    30    32    33    1
    31    32    34    1
    32    34    35    2
    33     1    16    1
    34    16    17   ar
    35    17    18   ar
    36    18    19   ar
    37    19    20    1
    38    19    21   ar
    39    21    22   ar
    40     7     8   ar
    41     8     3   ar
    42    42    37   ar
    43    35    25    1
    44    22    16   ar
    45    34    27    1
    46    23    24    1
@<TRIPOS>MOLECULE
*****
 42 46 0 0 0
SMALL
GASTEIGER

@<TRIPOS>ATOM
      1 C          62.1270   88.1448   11.6194 C.3     1  UNL1        0.1605
      2 F          64.6597   92.4538   10.1987 F       1  UNL1       -0.2041
      3 C          64.3362   91.4194   11.2356 C.ar    1  UNL1        0.1430
      4 C          64.9554   91.5049   12.5992 C.ar    1  UNL1        0.0667
      5 C          64.6319   90.4706   13.6360 C.ar    1  UNL1        0.1462
      6 C          63.6891   89.3505   13.3095 C.ar    1  UNL1        0.0363
      7 C          63.0698   89.2649   11.9459 C.ar    1  UNL1        0.0190
      8 C          63.3934   90.2993   10.9090 C.ar    1  UNL1        0.0289
      9 O          65.2511   90.5561   14.9997 O.3     1  UNL1       -0.4263
     10 C          66.2311   91.6482   15.3111 C.3     1  UNL1        0.4723
     11 F          65.1571   92.4057   16.0341 F       1  UNL1       -0.1579
     12 F          67.3050   90.8906   14.5881 F       1  UNL1       -0.1579
     13 C          67.2111   92.7403   15.6225 C.3     1  UNL1        0.4202
     14 F          68.2777   92.5192   16.6537 F       1  UNL1       -0.1876
     15 F          67.1244   94.0534   14.9027 F       1  UNL1       -0.1876
     16 C          60.9802   89.1118   11.6143 C.ar    1  UNL1        0.0937
     17 C          60.9488   90.2326   10.6178 C.ar    1  UNL1        0.0190
     18 C          59.8021   91.1995   10.6126 C.ar    1  UNL1        0.0143
     19 C          58.6868   91.0457   11.6039 C.ar    1  UNL1        0.0768
     20 CL         57.5401   92.0126   11.5987 Cl      1  UNL1       -0.0806
     21 C          58.7183   89.9249   12.6003 C.ar    1  UNL1        0.1099
     22 N          59.8650   88.9579   12.6055 N.ar    1  UNL1       -0.2439
     23 N          63.2739   87.1780   11.6245 N.pl3   1  UNL1       -0.2174
     24 H          64.1606   87.4644   11.3069 H       1  UNL1        0.2460
     25 C          63.0696   85.7748   12.1136 C.cat   1  UNL1        0.4204
     26 N          63.0776   84.5362   11.2675 N.2     1  UNL1       -0.0678
     27 C          62.8345   83.3598   12.1656 C.2     1  UNL1        0.1937
     28 C          62.7367   81.8887   11.8886 C.2     1  UNL1        0.0693
     29 C          62.4807   80.9292   13.0128 C.2     1  UNL1        0.1420
     30 F          62.3830   79.4583   12.7358 F       1  UNL1       -0.2043
     31 C          62.3225   81.4407   14.4140 C.2     1  UNL1        0.0459
     32 C          62.4203   82.9116   14.6910 C.3     1  UNL1        0.2444
     33 F          62.2621   83.4230   16.0923 F       1  UNL1       -0.2241
     34 C          62.6762   83.8711   13.5669 C.2     1  UNL1        0.2068
     35 N          62.8216   85.3637   13.5348 N.2     1  UNL1       -0.0689
     36 C          61.1842   87.0248   11.2928 C.3     1  UNL1        0.0705
     37 C          60.7593   86.7919    9.8733 C.ar    1  UNL1       -0.0184
     38 C          59.4397   87.3162    9.3898 C.ar    1  UNL1       -0.0041
     39 C          59.0147   87.0832    7.9702 C.ar    1  UNL1       -0.0003
     40 C          59.9094   86.3261    7.0341 C.ar    1  UNL1       -0.0000
     41 C          61.2290   85.8018    7.5176 C.ar    1  UNL1       -0.0003
     42 C          61.6539   86.0347    8.9372 C.ar    1  UNL1       -0.0041
@<TRIPOS>BOND
     1     2     3    1
     2     3     4   ar
     3     4     5   ar
     4     5     9    1
     5     9    10    1
     6    10    11    1
     7    10    12    1
     8    10    13    1
     9    13    14    1
    10    13    15    1
    11     5     6   ar
    12     6     7   ar
    13     7     1    1
    14     1    36    1
    15    36    37    1
    16    37    38   ar
    17    38    39   ar
    18    39    40   ar
    19    40    41   ar
    20    41    42   ar
    21     1    23    1
    22    23    25    1
    23    25    26    2
    24    26    27    1
    25    27    28    2
    26    28    29    1
    27    29    30    1
    28    29    31    2
    29    31    32    1
    30    32    33    1
    31    32    34    1
    32    34    35    2
    33     1    16    1
    34    16    17   ar
    35    17    18   ar
    36    18    19   ar
    37    19    20    1
    38    19    21   ar
    39    21    22   ar
    40     7     8   ar
    41     8     3   ar
    42    42    37   ar
    43    35    25    1
    44    22    16   ar
    45    34    27    1
    46    23    24    1
@<TRIPOS>MOLECULE
*****
 42 46 0 0 0
SMALL
GASTEIGER

@<TRIPOS>ATOM
      1 C          63.5630   89.8997   12.8583 C.3     1  UNL1        0.1605
      2 F          58.3870   89.5870   13.1916 F       1  UNL1       -0.2041
      3 C          59.6407   89.5442   12.3692 C.ar    1  UNL1        0.1430
      4 C          59.5601   89.3023   10.8910 C.ar    1  UNL1        0.0667
      5 C          60.8138   89.2595   10.0686 C.ar    1  UNL1        0.1462
      6 C          62.1482   89.4587   10.7244 C.ar    1  UNL1        0.0363
      7 C          62.2287   89.7006   12.2026 C.ar    1  UNL1        0.0190
      8 C          60.9750   89.7433   13.0250 C.ar    1  UNL1        0.0289
      9 O          60.7332   89.0176    8.5904 O.3     1  UNL1       -0.4263
     10 C          60.1675   87.7291    8.0711 C.3     1  UNL1        0.4723
     11 F          61.3226   86.9814    8.6682 F       1  UNL1       -0.1579
     12 F          59.0125   88.4770    7.4740 F       1  UNL1       -0.1579
     13 C          59.6018   86.4406    7.5518 C.3     1  UNL1        0.4202
     14 F          58.1191   86.2138    7.5634 F       1  UNL1       -0.1876
     15 F          60.5188   85.3790    7.0208 F       1  UNL1       -0.1876
     16 C          63.6536   88.4257   13.1214 C.ar    1  UNL1        0.0937
     17 C          64.3438   87.9252   14.3555 C.ar    1  UNL1        0.0190
     18 C          64.4345   86.4513   14.6187 C.ar    1  UNL1        0.0143
     19 C          63.8348   85.4778   13.6477 C.ar    1  UNL1        0.0768
     20 CL         63.9254   84.0039   13.9108 Cl      1  UNL1       -0.0806
     21 C          63.1446   85.9783   12.4135 C.ar    1  UNL1        0.1099
     22 N          63.0540   87.4522   12.1504 N.ar    1  UNL1       -0.2439
     23 N          63.4724   91.3737   12.5952 N.pl3   1  UNL1       -0.2174
     24 H          62.7217   91.8940   12.9625 H       1  UNL1        0.2460
     25 C          64.5254   92.0548   11.7723 C.cat   1  UNL1        0.4204
     26 N          64.6106   93.5258   11.4919 N.2     1  UNL1       -0.0678
     27 C          65.8160   93.7647   10.6317 C.2     1  UNL1        0.1937
     28 C          66.3982   95.0163   10.0446 C.2     1  UNL1        0.0693
     29 C          67.6400   94.9444    9.2064 C.2     1  UNL1        0.1420
     30 F          68.2222   96.1960    8.6193 F       1  UNL1       -0.2043
     31 C          68.2998   93.6209    8.9552 C.2     1  UNL1        0.0459
     32 C          67.7176   92.3694    9.5422 C.3     1  UNL1        0.2444
     33 F          68.3774   91.0458    9.2910 F       1  UNL1       -0.2241
     34 C          66.4758   92.4412   10.3804 C.2     1  UNL1        0.2068
     35 N          65.6782   91.3844   11.0854 N.2     1  UNL1       -0.0689
     36 C          64.8973   90.0987   13.5140 C.3     1  UNL1        0.0705
     37 C          65.0154   90.9799   14.7221 C.ar    1  UNL1       -0.0184
     38 C          66.2461   91.8130   14.9254 C.ar    1  UNL1       -0.0041
     39 C          66.3641   92.6941   16.1335 C.ar    1  UNL1       -0.0003
     40 C          65.2515   92.7423   17.1383 C.ar    1  UNL1       -0.0000
     41 C          64.0207   91.9093   16.9350 C.ar    1  UNL1       -0.0003
     42 C          63.9027   91.0281   15.7269 C.ar    1  UNL1       -0.0041
@<TRIPOS>BOND
     1     2     3    1
     2     3     4   ar
     3     4     5   ar
     4     5     9    1
     5     9    10    1
     6    10    11    1
     7    10    12    1
     8    10    13    1
     9    13    14    1
    10    13    15    1
    11     5     6   ar
    12     6     7   ar
    13     7     1    1
    14     1    36    1
    15    36    37    1
    16    37    38   ar
    17    38    39   ar
    18    39    40   ar
    19    40    41   ar
    20    41    42   ar
    21     1    23    1
    22    23    25    1
    23    25    26    2
    24    26    27    1
    25    27    28    2
    26    28    29    1
    27    29    30    1
    28    29    31    2
    29    31    32    1
    30    32    33    1
    31    32    34    1
    32    34    35    2
    33     1    16    1
    34    16    17   ar
    35    17    18   ar
    36    18    19   ar
    37    19    20    1
    38    19    21   ar
    39    21    22   ar
    40     7     8   ar
    41     8     3   ar
    42    42    37   ar
    43    35    25    1
    44    22    16   ar
    45    34    27    1
    46    23    24    1
@<TRIPOS>MOLECULE
*****
 42 46 0 0 0
SMALL
GASTEIGER

@<TRIPOS>ATOM
      1 C          62.1776   88.0847   11.6936 C.3     1  UNL1        0.1605
      2 F          65.4066   90.3810   15.0553 F       1  UNL1       -0.2041
      3 C          64.7232   90.3569   13.7203 C.ar    1  UNL1        0.1430
      4 C          64.9710   91.4569   12.7308 C.ar    1  UNL1        0.0667
      5 C          64.2876   91.4327   11.3959 C.ar    1  UNL1        0.1462
      6 C          63.3565   90.3086   11.0501 C.ar    1  UNL1        0.0363
      7 C          63.1087   89.2087   12.0394 C.ar    1  UNL1        0.0190
      8 C          63.7921   89.2329   13.3745 C.ar    1  UNL1        0.0289
      9 O          64.5354   92.5327   10.4064 O.3     1  UNL1       -0.4263
     10 C          65.8661   93.2240   10.3712 C.3     1  UNL1        0.4723
     11 F          65.2002   94.5234   10.7148 F       1  UNL1       -0.1579
     12 F          66.5319   91.9246   10.0276 F       1  UNL1       -0.1579
     13 C          67.1968   93.9153   10.3360 C.3     1  UNL1        0.4202
     14 F          67.2983   95.3661   10.7033 F       1  UNL1       -0.1876
     15 F          68.4261   93.1558    9.9334 F       1  UNL1       -0.1876
     16 C          61.0272   89.0470   11.6640 C.ar    1  UNL1        0.0937
     17 C          60.9749   90.1212   10.6184 C.ar    1  UNL1        0.0190
     18 C          59.8246   91.0835   10.5886 C.ar    1  UNL1        0.0143
     19 C          58.7266   90.9715   11.6044 C.ar    1  UNL1        0.0768
     20 CL         57.5764   91.9337   11.5747 Cl      1  UNL1       -0.0806
     21 C          58.7789   89.8972   12.6500 C.ar    1  UNL1        0.1099
     22 N          59.9292   88.9349   12.6798 N.ar    1  UNL1       -0.2439
     23 N          63.3280   87.1226   11.7234 N.pl3   1  UNL1       -0.2174
     24 H          64.2250   87.4191   11.4464 H       1  UNL1        0.2460
     25 C          63.1117   85.7087   12.1751 C.cat   1  UNL1        0.4204
     26 N          63.1275   84.4911   11.2992 N.2     1  UNL1       -0.0678
     27 C          62.8672   83.2941   12.1648 C.2     1  UNL1        0.1937
     28 C          62.7682   81.8306   11.8506 C.2     1  UNL1        0.0693
     29 C          62.4926   80.8450   12.9473 C.2     1  UNL1        0.1420
     30 F          62.3936   79.3816   12.6331 F       1  UNL1       -0.2043
     31 C          62.3160   81.3228   14.3581 C.2     1  UNL1        0.0459
     32 C          62.4150   82.7862   14.6723 C.3     1  UNL1        0.2444
     33 F          62.2383   83.2639   16.0832 F       1  UNL1       -0.2241
     34 C          62.6906   83.7717   13.5757 C.2     1  UNL1        0.2068
     35 N          62.8417   85.2641   13.5821 N.2     1  UNL1       -0.0689
     36 C          61.2464   86.9608   11.3479 C.3     1  UNL1        0.0705
     37 C          60.8171   86.7530    9.9258 C.ar    1  UNL1       -0.0184
     38 C          59.4757   87.2440    9.4679 C.ar    1  UNL1       -0.0041
     39 C          59.0464   87.0362    8.0458 C.ar    1  UNL1       -0.0003
     40 C          59.9584   86.3374    7.0815 C.ar    1  UNL1       -0.0000
     41 C          61.2997   85.8463    7.5393 C.ar    1  UNL1       -0.0003
     42 C          61.7291   86.0541    8.9615 C.ar    1  UNL1       -0.0041
@<TRIPOS>BOND
     1     2     3    1
     2     3     4   ar
     3     4     5   ar
     4     5     9    1
     5     9    10    1
     6    10    11    1
     7    10    12    1
     8    10    13    1
     9    13    14    1
    10    13    15    1
    11     5     6   ar
    12     6     7   ar
    13     7     1    1
    14     1    36    1
    15    36    37    1
    16    37    38   ar
    17    38    39   ar
    18    39    40   ar
    19    40    41   ar
    20    41    42   ar
    21     1    23    1
    22    23    25    1
    23    25    26    2
    24    26    27    1
    25    27    28    2
    26    28    29    1
    27    29    30    1
    28    29    31    2
    29    31    32    1
    30    32    33    1
    31    32    34    1
    32    34    35    2
    33     1    16    1
    34    16    17   ar
    35    17    18   ar
    36    18    19   ar
    37    19    20    1
    38    19    21   ar
    39    21    22   ar
    40     7     8   ar
    41     8     3   ar
    42    42    37   ar
    43    35    25    1
    44    22    16   ar
    45    34    27    1
    46    23    24    1
@<TRIPOS>MOLECULE
*****
 42 46 0 0 0
SMALL
GASTEIGER

@<TRIPOS>ATOM
      1 C          63.9957   90.9706   14.1089 C.3     1  UNL1        0.1605
      2 F          62.7467   91.4204    9.0851 F       1  UNL1       -0.2041
      3 C          62.7143   90.6424   10.3671 C.ar    1  UNL1        0.1430
      4 C          62.0248   89.3112   10.4193 C.ar    1  UNL1        0.0667
      5 C          61.9923   88.5332   11.7013 C.ar    1  UNL1        0.1462
      6 C          62.6493   89.0864   12.9312 C.ar    1  UNL1        0.0363
      7 C          63.3388   90.4175   12.8790 C.ar    1  UNL1        0.0190
      8 C          63.3712   91.1955   11.5969 C.ar    1  UNL1        0.0289
      9 O          61.3029   87.2020   11.7535 O.3     1  UNL1       -0.4263
     10 C          61.9721   85.9879   11.1807 C.3     1  UNL1        0.4723
     11 F          62.9880   86.0276   12.2835 F       1  UNL1       -0.1579
     12 F          60.9561   85.9484   10.0779 F       1  UNL1       -0.1579
     13 C          62.6412   84.7739   10.6078 C.3     1  UNL1        0.4202
     14 F          62.6030   83.4737   11.3548 F       1  UNL1       -0.1876
     15 F          63.3487   84.8600    9.2879 F       1  UNL1       -0.1876
     16 C          63.8899   89.6278   14.7691 C.ar    1  UNL1        0.0937
     17 C          64.6516   88.4590   14.2180 C.ar    1  UNL1        0.0190
     18 C          64.5459   87.1163   14.8781 C.ar    1  UNL1        0.0143
     19 C          63.6784   86.9423   16.0894 C.ar    1  UNL1        0.0768
     20 CL         63.5726   85.5996   16.7496 Cl      1  UNL1       -0.0806
     21 C          62.9166   88.1111   16.6405 C.ar    1  UNL1        0.1099
     22 N          63.0223   89.4538   15.9803 N.ar    1  UNL1       -0.2439
     23 N          64.1015   92.3133   13.4485 N.pl3   1  UNL1       -0.2174
     24 H          63.4830   93.0363   13.7015 H       1  UNL1        0.2460
     25 C          65.1494   92.5543   12.4028 C.cat   1  UNL1        0.4204
     26 N          66.0470   91.5155   11.7983 N.2     1  UNL1       -0.0678
     27 C          66.9361   92.1955   10.7998 C.2     1  UNL1        0.1937
     28 C          68.0178   91.6747    9.9004 C.2     1  UNL1        0.0693
     29 C          68.7514   92.6130    8.9885 C.2     1  UNL1        0.1420
     30 F          69.8330   92.0922    8.0891 F       1  UNL1       -0.2043
     31 C          68.4034   94.0720    8.9760 C.2     1  UNL1        0.0459
     32 C          67.3218   94.5927    9.8754 C.3     1  UNL1        0.2444
     33 F          66.9738   96.0518    9.8628 F       1  UNL1       -0.2241
     34 C          66.5882   93.6546   10.7872 C.2     1  UNL1        0.2068
     35 N          65.4839   93.8763   11.7780 N.2     1  UNL1       -0.0689
     36 C          64.6526   91.5236   15.3387 C.3     1  UNL1        0.0705
     37 C          66.0922   91.9428   15.2961 C.ar    1  UNL1       -0.0184
     38 C          66.5392   93.1666   16.0393 C.ar    1  UNL1       -0.0041
     39 C          67.9788   93.5859   15.9966 C.ar    1  UNL1       -0.0003
     40 C          68.9713   92.7813   15.2108 C.ar    1  UNL1       -0.0000
     41 C          68.5243   91.5575   14.4675 C.ar    1  UNL1       -0.0003
     42 C          67.0847   91.1383   14.5102 C.ar    1  UNL1       -0.0041
@<TRIPOS>BOND
     1     2     3    1
     2     3     4   ar
     3     4     5   ar
     4     5     9    1
     5     9    10    1
     6    10    11    1
     7    10    12    1
     8    10    13    1
     9    13    14    1
    10    13    15    1
    11     5     6   ar
    12     6     7   ar
    13     7     1    1
    14     1    36    1
    15    36    37    1
    16    37    38   ar
    17    38    39   ar
    18    39    40   ar
    19    40    41   ar
    20    41    42   ar
    21     1    23    1
    22    23    25    1
    23    25    26    2
    24    26    27    1
    25    27    28    2
    26    28    29    1
    27    29    30    1
    28    29    31    2
    29    31    32    1
    30    32    33    1
    31    32    34    1
    32    34    35    2
    33     1    16    1
    34    16    17   ar
    35    17    18   ar
    36    18    19   ar
    37    19    20    1
    38    19    21   ar
    39    21    22   ar
    40     7     8   ar
    41     8     3   ar
    42    42    37   ar
    43    35    25    1
    44    22    16   ar
    45    34    27    1
    46    23    24    1
@<TRIPOS>MOLECULE
*****
 42 46 0 0 0
SMALL
GASTEIGER

@<TRIPOS>ATOM
      1 C          63.0758   89.0895   12.8444 C.3     1  UNL1        0.1605
      2 F          58.6664   91.6664   11.8867 F       1  UNL1       -0.2041
      3 C          59.7686   90.7608   11.4232 C.ar    1  UNL1        0.1430
      4 C          59.7686   90.2380   10.0172 C.ar    1  UNL1        0.0667
      5 C          60.8708   89.3325    9.5536 C.ar    1  UNL1        0.1462
      6 C          61.9732   88.9496   10.4961 C.ar    1  UNL1        0.0363
      7 C          61.9734   89.4723   11.9020 C.ar    1  UNL1        0.0190
      8 C          60.8710   90.3779   12.3656 C.ar    1  UNL1        0.0289
      9 O          60.8707   88.8097    8.1476 O.3     1  UNL1       -0.4263
     10 C          60.1792   87.5176    7.8280 C.3     1  UNL1        0.4723
     11 F          61.4021   86.7587    8.2504 F       1  UNL1       -0.1579
     12 F          58.9563   88.2766    7.4056 F       1  UNL1       -0.1579
     13 C          59.4877   86.2254    7.5084 C.3     1  UNL1        0.4202
     14 F          60.2830   85.0482    7.0270 F       1  UNL1       -0.1876
     15 F          58.0009   86.1105    7.6702 F       1  UNL1       -0.1876
     16 C          63.8541   90.3017   12.4262 C.ar    1  UNL1        0.0937
     17 C          64.7481   90.9953   13.4109 C.ar    1  UNL1        0.0190
     18 C          65.5265   92.2075   12.9928 C.ar    1  UNL1        0.0143
     19 C          65.4108   92.7260   11.5901 C.ar    1  UNL1        0.0768
     20 CL         66.1891   93.9381   11.1719 Cl      1  UNL1       -0.0806
     21 C          64.5168   92.0323   10.6054 C.ar    1  UNL1        0.1099
     22 N          63.7385   90.8202   11.0235 N.ar    1  UNL1       -0.2439
     23 N          62.2974   87.8773   13.2625 N.pl3   1  UNL1       -0.2174
     24 H          61.6248   87.9469   13.9781 H       1  UNL1        0.2460
     25 C          62.5437   86.5592   12.5904 C.cat   1  UNL1        0.4204
     26 N          62.4638   85.2096   13.2402 N.2     1  UNL1       -0.0678
     27 C          62.7839   84.1756   12.2018 C.2     1  UNL1        0.1937
     28 C          62.8583   82.6787   12.2655 C.2     1  UNL1        0.0693
     29 C          63.2106   81.8924   11.0376 C.2     1  UNL1        0.1420
     30 F          63.2850   80.3956   11.1012 F       1  UNL1       -0.2043
     31 C          63.4884   82.6029    9.7461 C.2     1  UNL1        0.0459
     32 C          63.4139   84.0997    9.6824 C.3     1  UNL1        0.2444
     33 F          63.6917   84.8102    8.3908 F       1  UNL1       -0.2241
     34 C          63.0617   84.8860   10.9102 C.2     1  UNL1        0.2068
     35 N          62.9133   86.3592   11.1504 N.2     1  UNL1       -0.0689
     36 C          64.1782   88.7067   13.7868 C.3     1  UNL1        0.0705
     37 C          63.8556   88.0080   15.0743 C.ar    1  UNL1       -0.0184
     38 C          64.2098   86.5613   15.2517 C.ar    1  UNL1       -0.0041
     39 C          63.8872   85.8626   16.5392 C.ar    1  UNL1       -0.0003
     40 C          63.2104   86.6106   17.6493 C.ar    1  UNL1       -0.0000
     41 C          62.8562   88.0573   17.4719 C.ar    1  UNL1       -0.0003
     42 C          63.1788   88.7560   16.1844 C.ar    1  UNL1       -0.0041
@<TRIPOS>BOND
     1     2     3    1
     2     3     4   ar
     3     4     5   ar
     4     5     9    1
     5     9    10    1
     6    10    11    1
     7    10    12    1
     8    10    13    1
     9    13    14    1
    10    13    15    1
    11     5     6   ar
    12     6     7   ar
    13     7     1    1
    14     1    36    1
    15    36    37    1
    16    37    38   ar
    17    38    39   ar
    18    39    40   ar
    19    40    41   ar
    20    41    42   ar
    21     1    23    1
    22    23    25    1
    23    25    26    2
    24    26    27    1
    25    27    28    2
    26    28    29    1
    27    29    30    1
    28    29    31    2
    29    31    32    1
    30    32    33    1
    31    32    34    1
    32    34    35    2
    33     1    16    1
    34    16    17   ar
    35    17    18   ar
    36    18    19   ar
    37    19    20    1
    38    19    21   ar
    39    21    22   ar
    40     7     8   ar
    41     8     3   ar
    42    42    37   ar
    43    35    25    1
    44    22    16   ar
    45    34    27    1
    46    23    24    1
