@<TRIPOS>MOLECULE
*****
 34 37 0 0 0
SMALL
GASTEIGER

@<TRIPOS>ATOM
      1 C          61.4678   87.9212   10.5174 C.3     1  UNL1        0.1174
      2 C          60.8452   88.4242    9.2488 C.ar    1  UNL1        0.0961
      3 N          60.3740   89.6555    8.5335 N.ar    1  UNL1       -0.1681
      4 N          59.8378   89.2381    7.1963 N.ar    1  UNL1       -0.2287
      5 C          59.9775   87.7487    7.0852 C.ar    1  UNL1        0.0990
      6 C          60.6001   87.2457    8.3538 C.ar    1  UNL1        0.0337
      7 C          61.0713   86.0143    9.0691 C.3     1  UNL1        0.1235
      8 N          61.6076   86.4318   10.4064 N.pl3   1  UNL1       -0.2703
      9 C          59.2627   90.1498    6.1532 C.ar    1  UNL1        0.0841
     10 C          57.7780   90.3435    6.0624 C.ar    1  UNL1        0.0192
     11 C          57.2031   91.2553    5.0193 C.ar    1  UNL1        0.0029
     12 C          58.1127   91.9734    4.0670 C.ar    1  UNL1        0.0184
     13 C          59.5974   91.7798    4.1578 C.ar    1  UNL1        0.1072
     14 C          60.1723   90.8680    5.2009 C.ar    1  UNL1        0.0375
     15 S          60.5070   92.4979    3.2056 S.O2    1  UNL1        0.0105
     16 C          61.4168   93.2160    2.2534 C.3     1  UNL1        0.1816
     17 O          59.3152   93.0894    2.5129 O.2     1  UNL1       -0.1686
     18 O          61.6989   91.9065    3.8983 O.2     1  UNL1       -0.1686
     19 C          62.1826   85.5201   11.4494 C.ar    1  UNL1        0.2206
     20 N          62.7736   86.0933   12.7033 N.ar    1  UNL1       -0.2123
     21 C          63.3486   85.1815   13.7463 C.ar    1  UNL1        0.1014
     22 C          63.3327   83.6964   13.5355 C.ar    1  UNL1        0.0479
     23 C          62.7417   83.1232   12.2817 C.ar    1  UNL1        0.1553
     24 N          62.1667   84.0350   11.2386 N.ar    1  UNL1       -0.2099
     25 C          62.7258   81.6381   12.0709 C.3     1  UNL1        0.4348
     26 F          62.7099   80.1531   11.8601 F       1  UNL1       -0.1644
     27 F          61.5565   81.5185   13.0028 F       1  UNL1       -0.1644
     28 F          63.8951   81.7579   11.1390 F       1  UNL1       -0.1644
     29 C          63.9077   82.7846   14.5786 C.3     1  UNL1        0.1666
     30 O          64.6822   83.3556   15.7293 O.3     1  UNL1       -0.3771
     31 H          65.4995   83.7609   15.3996 H       1  UNL1        0.2109
     32 C          60.8374   89.4571   12.5158 C.3     1  UNL1        0.0021
     33 C          61.8786   88.7602   11.6910 C.3     1  UNL1        0.0241
     34 C          63.3306   88.9023   12.0398 C.3     1  UNL1        0.0021
@<TRIPOS>BOND
     1    32    33    1
     2    33    34    1
     3     1    33    1
     4     1     2    1
     5     2     3   ar
     6     3     4   ar
     7     4     9    1
     8     9    10   ar
     9    10    11   ar
    10    11    12   ar
    11    12    13   ar
    12    13    15    1
    13    15    16    1
    14    15    17    2
    15    15    18    2
    16    13    14   ar
    17     4     5   ar
    18     5     6   ar
    19     6     7    1
    20     7     8    1
    21     8    19    1
    22    19    20   ar
    23    20    21   ar
    24    21    22   ar
    25    22    29    1
    26    29    30    1
    27    22    23   ar
    28    23    25    1
    29    25    26    1
    30    25    27    1
    31    25    28    1
    32    23    24   ar
    33     8     1    1
    34    24    19   ar
    35     6     2   ar
    36    14     9   ar
    37    30    31    1
@<TRIPOS>MOLECULE
*****
 34 37 0 0 0
SMALL
GASTEIGER

@<TRIPOS>ATOM
      1 C          61.7405   86.1779    8.9492 C.3     1  UNL1        0.1174
      2 C          61.0196   87.3206    8.2977 C.ar    1  UNL1        0.0961
      3 N          60.6423   87.9222    6.9765 N.ar    1  UNL1       -0.1681
      4 N          59.8530   89.1695    7.2436 N.ar    1  UNL1       -0.2287
      5 C          59.7425   89.3387    8.7300 C.ar    1  UNL1        0.0990
      6 C          60.4635   88.1960    9.3814 C.ar    1  UNL1        0.0337
      7 C          60.8408   87.5944   10.7027 C.3     1  UNL1        0.1235
      8 N          61.6301   86.3470   10.4356 N.pl3   1  UNL1       -0.2703
      9 C          59.2756   90.0865    6.2065 C.ar    1  UNL1        0.0841
     10 C          57.7905   90.2788    6.1186 C.ar    1  UNL1        0.0192
     11 C          57.2132   91.1959    5.0814 C.ar    1  UNL1        0.0029
     12 C          58.1208   91.9207    4.1323 C.ar    1  UNL1        0.0184
     13 C          59.6058   91.7285    4.2203 C.ar    1  UNL1        0.1072
     14 C          60.1831   90.8114    5.2574 C.ar    1  UNL1        0.0375
     15 S          60.5134   92.4533    3.2712 S.O2    1  UNL1        0.0105
     16 C          61.4210   93.1781    2.3221 C.3     1  UNL1        0.1816
     17 O          61.7071   91.8635    3.9622 O.2     1  UNL1       -0.1686
     18 O          59.3198   93.0431    2.5801 O.2     1  UNL1       -0.1686
     19 C          62.2075   85.4300   11.4726 C.ar    1  UNL1        0.2206
     20 N          62.8647   85.9994   12.6949 N.ar    1  UNL1       -0.2123
     21 C          63.4421   85.0823   13.7320 C.ar    1  UNL1        0.1014
     22 C          63.3623   83.5959   13.5469 C.ar    1  UNL1        0.0479
     23 C          62.7051   83.0265   12.3246 C.ar    1  UNL1        0.1553
     24 N          62.1276   83.9437   11.2875 N.ar    1  UNL1       -0.2099
     25 C          62.6252   81.5402   12.1395 C.3     1  UNL1        0.4348
     26 F          62.5455   80.0538   11.9544 F       1  UNL1       -0.1644
     27 F          63.7492   81.6034   11.1481 F       1  UNL1       -0.1644
     28 F          61.5014   81.4770   13.1309 F       1  UNL1       -0.1644
     29 C          63.9397   82.6788   14.5840 C.3     1  UNL1        0.1666
     30 O          64.6810   83.2465   15.7579 O.3     1  UNL1       -0.3771
     31 H          65.4945   83.6757   15.4498 H       1  UNL1        0.2109
     32 C          61.9391   84.5739    6.9151 C.3     1  UNL1        0.0021
     33 C          62.4479   85.0619    8.2391 C.3     1  UNL1        0.0241
     34 C          63.6639   84.4339    8.8529 C.3     1  UNL1        0.0021
@<TRIPOS>BOND
     1    32    33    1
     2    33    34    1
     3     1    33    1
     4     1     2    1
     5     2     3   ar
     6     3     4   ar
     7     4     9    1
     8     9    10   ar
     9    10    11   ar
    10    11    12   ar
    11    12    13   ar
    12    13    15    1
    13    15    16    1
    14    15    17    2
    15    15    18    2
    16    13    14   ar
    17     4     5   ar
    18     5     6   ar
    19     6     7    1
    20     7     8    1
    21     8    19    1
    22    19    20   ar
    23    20    21   ar
    24    21    22   ar
    25    22    29    1
    26    29    30    1
    27    22    23   ar
    28    23    25    1
    29    25    26    1
    30    25    27    1
    31    25    28    1
    32    23    24   ar
    33     8     1    1
    34    24    19   ar
    35     6     2   ar
    36    14     9   ar
    37    30    31    1
@<TRIPOS>MOLECULE
*****
 34 37 0 0 0
SMALL
GASTEIGER

@<TRIPOS>ATOM
      1 C          61.6036   87.6675   10.3935 C.3     1  UNL1        0.1174
      2 C          60.9301   88.2118    9.1687 C.ar    1  UNL1        0.0961
      3 N          60.4512   89.4686    8.5044 N.ar    1  UNL1       -0.1681
      4 N          59.8404   89.0926    7.1870 N.ar    1  UNL1       -0.2287
      5 C          59.9418   87.6036    7.0371 C.ar    1  UNL1        0.0990
      6 C          60.6153   87.0592    8.2619 C.ar    1  UNL1        0.0337
      7 C          61.0942   85.8025    8.9262 C.3     1  UNL1        0.1235
      8 N          61.7050   86.1784   10.2436 N.pl3   1  UNL1       -0.2703
      9 C          59.2346   90.0395    6.1938 C.ar    1  UNL1        0.0841
     10 C          57.7485   90.2405    6.1593 C.ar    1  UNL1        0.0192
     11 C          57.1427   91.1874    5.1660 C.ar    1  UNL1        0.0029
     12 C          58.0229   91.9333    4.2074 C.ar    1  UNL1        0.0184
     13 C          59.5090   91.7323    4.2420 C.ar    1  UNL1        0.1072
     14 C          60.1148   90.7853    5.2352 C.ar    1  UNL1        0.0375
     15 S          60.3893   92.4781    3.2835 S.O2    1  UNL1        0.0105
     16 C          61.2696   93.2238    2.3250 C.3     1  UNL1        0.1816
     17 O          59.1755   93.0575    2.6195 O.2     1  UNL1       -0.1686
     18 O          61.6032   91.8986    3.9475 O.2     1  UNL1       -0.1686
     19 C          62.3108   85.2315   11.2367 C.ar    1  UNL1        0.2206
     20 N          63.1528   84.0844   10.7622 N.ar    1  UNL1       -0.2123
     21 C          63.7586   83.1375   11.7553 C.ar    1  UNL1        0.1014
     22 C          63.5225   83.3377   13.2231 C.ar    1  UNL1        0.0479
     23 C          62.6806   84.4849   13.6977 C.ar    1  UNL1        0.1553
     24 N          62.0747   85.4317   12.7044 N.ar    1  UNL1       -0.2099
     25 C          62.4445   84.6851   15.1654 C.3     1  UNL1        0.4348
     26 F          62.2083   84.8852   16.6330 F       1  UNL1       -0.1644
     27 F          61.3877   83.6207   15.1404 F       1  UNL1       -0.1644
     28 F          63.5012   85.7494   15.1902 F       1  UNL1       -0.1644
     29 C          64.1284   82.3908   14.2162 C.3     1  UNL1        0.1666
     30 O          63.5130   81.0409   14.4373 O.3     1  UNL1       -0.3771
     31 H          62.6327   81.1472   14.8306 H       1  UNL1        0.2109
     32 C          63.3533   88.0773   12.2698 C.3     1  UNL1        0.0021
     33 C          62.0903   88.4710   11.5629 C.3     1  UNL1        0.0241
     34 C          61.3139   89.6683   12.0253 C.3     1  UNL1        0.0021
@<TRIPOS>BOND
     1    32    33    1
     2    33    34    1
     3     1    33    1
     4     1     2    1
     5     2     3   ar
     6     3     4   ar
     7     4     9    1
     8     9    10   ar
     9    10    11   ar
    10    11    12   ar
    11    12    13   ar
    12    13    15    1
    13    15    16    1
    14    15    17    2
    15    15    18    2
    16    13    14   ar
    17     4     5   ar
    18     5     6   ar
    19     6     7    1
    20     7     8    1
    21     8    19    1
    22    19    20   ar
    23    20    21   ar
    24    21    22   ar
    25    22    29    1
    26    29    30    1
    27    22    23   ar
    28    23    25    1
    29    25    26    1
    30    25    27    1
    31    25    28    1
    32    23    24   ar
    33     8     1    1
    34    24    19   ar
    35     6     2   ar
    36    14     9   ar
    37    30    31    1
@<TRIPOS>MOLECULE
*****
 34 37 0 0 0
SMALL
GASTEIGER

@<TRIPOS>ATOM
      1 C          61.7613   86.0426    9.0223 C.3     1  UNL1        0.1174
      2 C          61.0305   87.1862    8.3836 C.ar    1  UNL1        0.0961
      3 N          60.7126   87.8427    7.0729 N.ar    1  UNL1       -0.1681
      4 N          59.8480   89.0366    7.3502 N.ar    1  UNL1       -0.2287
      5 C          59.6315   89.1181    8.8322 C.ar    1  UNL1        0.0990
      6 C          60.3623   87.9744    9.4710 C.ar    1  UNL1        0.0337
      7 C          60.6802   87.3180   10.7817 C.3     1  UNL1        0.1235
      8 N          61.5449   86.1240   10.5045 N.pl3   1  UNL1       -0.2703
      9 C          59.2966   89.9830    6.3253 C.ar    1  UNL1        0.0841
     10 C          57.8169   90.2121    6.2351 C.ar    1  UNL1        0.0192
     11 C          57.2657   91.1585    5.2102 C.ar    1  UNL1        0.0029
     12 C          58.1939   91.8759    4.2755 C.ar    1  UNL1        0.0184
     13 C          59.6736   91.6468    4.3657 C.ar    1  UNL1        0.1072
     14 C          60.2249   90.7004    5.3906 C.ar    1  UNL1        0.0375
     15 S          60.6019   92.3641    3.4311 S.O2    1  UNL1        0.0105
     16 C          61.5302   93.0815    2.4964 C.3     1  UNL1        0.1816
     17 O          61.7674   91.6304    4.0255 O.2     1  UNL1       -0.1686
     18 O          59.4364   93.0979    2.8366 O.2     1  UNL1       -0.1686
     19 C          62.0962   85.1776   11.5293 C.ar    1  UNL1        0.2206
     20 N          62.1163   83.7031   11.2547 N.ar    1  UNL1       -0.2123
     21 C          62.6676   82.7567   12.2795 C.ar    1  UNL1        0.1014
     22 C          63.1989   83.2849   13.5791 C.ar    1  UNL1        0.0479
     23 C          63.1789   84.7594   13.8537 C.ar    1  UNL1        0.1553
     24 N          62.6275   85.7057   12.8288 N.ar    1  UNL1       -0.2099
     25 C          63.7102   85.2875   15.1533 C.3     1  UNL1        0.4348
     26 F          64.2416   85.8156   16.4528 F       1  UNL1       -0.1644
     27 F          65.0431   85.5304   14.5095 F       1  UNL1       -0.1644
     28 F          62.3773   85.0445   15.7970 F       1  UNL1       -0.1644
     29 C          63.7503   82.3385   14.6039 C.3     1  UNL1        0.1666
     30 O          63.7251   80.8603   14.3502 O.3     1  UNL1       -0.3771
     31 H          62.8056   80.5525   14.3231 H       1  UNL1        0.2109
     32 C          62.2152   84.6173    6.8981 C.3     1  UNL1        0.0021
     33 C          62.5671   85.0004    8.3050 C.3     1  UNL1        0.0241
     34 C          63.7248   84.3414    8.9945 C.3     1  UNL1        0.0021
@<TRIPOS>BOND
     1    32    33    1
     2    33    34    1
     3     1    33    1
     4     1     2    1
     5     2     3   ar
     6     3     4   ar
     7     4     9    1
     8     9    10   ar
     9    10    11   ar
    10    11    12   ar
    11    12    13   ar
    12    13    15    1
    13    15    16    1
    14    15    17    2
    15    15    18    2
    16    13    14   ar
    17     4     5   ar
    18     5     6   ar
    19     6     7    1
    20     7     8    1
    21     8    19    1
    22    19    20   ar
    23    20    21   ar
    24    21    22   ar
    25    22    29    1
    26    29    30    1
    27    22    23   ar
    28    23    25    1
    29    25    26    1
    30    25    27    1
    31    25    28    1
    32    23    24   ar
    33     8     1    1
    34    24    19   ar
    35     6     2   ar
    36    14     9   ar
    37    30    31    1
@<TRIPOS>MOLECULE
*****
 34 37 0 0 0
SMALL
GASTEIGER

@<TRIPOS>ATOM
      1 C          60.9284   92.2026    3.2026 C.3     1  UNL1        0.1174
      2 C          60.4998   91.3891    4.3877 C.ar    1  UNL1        0.0961
      3 N          60.9872   90.4746    5.4722 N.ar    1  UNL1       -0.1681
      4 N          59.8062   90.0730    6.3053 N.ar    1  UNL1       -0.2287
      5 C          58.5890   90.7393    5.7358 C.ar    1  UNL1        0.0990
      6 C          59.0176   91.5528    4.5506 C.ar    1  UNL1        0.0337
      7 C          58.5302   92.4673    3.4662 C.3     1  UNL1        0.1235
      8 N          59.7112   92.8689    2.6330 N.pl3   1  UNL1       -0.2703
      9 C          59.8371   89.1646    7.4986 C.ar    1  UNL1        0.0841
     10 C          59.1867   87.8146    7.4305 C.ar    1  UNL1        0.0192
     11 C          59.2176   86.9062    8.6238 C.ar    1  UNL1        0.0029
     12 C          59.8989   87.3477    9.8851 C.ar    1  UNL1        0.0184
     13 C          60.5492   88.6977    9.9532 C.ar    1  UNL1        0.1072
     14 C          60.5183   89.6061    8.7599 C.ar    1  UNL1        0.0375
     15 S          61.2305   89.1392   11.2145 S.O2    1  UNL1        0.0105
     16 C          61.9118   89.5808   12.4757 C.3     1  UNL1        0.1816
     17 O          60.0637   88.6458   12.0176 O.2     1  UNL1       -0.1686
     18 O          62.3974   89.6327   10.4113 O.2     1  UNL1       -0.1686
     19 C          59.6803   93.7773    1.4398 C.ar    1  UNL1        0.2206
     20 N          59.8716   95.2546    1.6167 N.ar    1  UNL1       -0.2123
     21 C          59.8407   96.1630    0.4235 C.ar    1  UNL1        0.1014
     22 C          59.6185   95.5942   -0.9467 C.ar    1  UNL1        0.0479
     23 C          59.4272   94.1170   -1.1236 C.ar    1  UNL1        0.1553
     24 N          59.4581   93.2086    0.0697 N.ar    1  UNL1       -0.2099
     25 C          59.2050   93.5483   -2.4936 C.3     1  UNL1        0.4348
     26 F          58.9827   92.9796   -3.8637 F       1  UNL1       -0.1644
     27 F          57.7246   93.7223   -2.3256 F       1  UNL1       -0.1644
     28 F          60.6854   93.3744   -2.6615 F       1  UNL1       -0.1644
     29 C          59.5876   96.5027   -2.1399 C.3     1  UNL1        0.1666
     30 O          60.8149   96.6720   -2.9856 O.3     1  UNL1       -0.3771
     31 H          61.5075   97.1096   -2.4663 H       1  UNL1        0.2109
     32 C          62.7254   93.5337    1.8802 C.3     1  UNL1        0.0021
     33 C          62.3284   92.3277    2.6789 C.3     1  UNL1        0.0241
     34 C          63.3315   91.2469    2.9539 C.3     1  UNL1        0.0021
@<TRIPOS>BOND
     1    32    33    1
     2    33    34    1
     3     1    33    1
     4     1     2    1
     5     2     3   ar
     6     3     4   ar
     7     4     9    1
     8     9    10   ar
     9    10    11   ar
    10    11    12   ar
    11    12    13   ar
    12    13    15    1
    13    15    16    1
    14    15    17    2
    15    15    18    2
    16    13    14   ar
    17     4     5   ar
    18     5     6   ar
    19     6     7    1
    20     7     8    1
    21     8    19    1
    22    19    20   ar
    23    20    21   ar
    24    21    22   ar
    25    22    29    1
    26    29    30    1
    27    22    23   ar
    28    23    25    1
    29    25    26    1
    30    25    27    1
    31    25    28    1
    32    23    24   ar
    33     8     1    1
    34    24    19   ar
    35     6     2   ar
    36    14     9   ar
    37    30    31    1
@<TRIPOS>MOLECULE
*****
 34 37 0 0 0
SMALL
GASTEIGER

@<TRIPOS>ATOM
      1 C          63.3628   88.3241   12.5804 C.3     1  UNL1        0.1174
      2 C          63.2481   86.8612   12.8916 C.ar    1  UNL1        0.0961
      3 N          62.5085   85.6020   12.5490 N.ar    1  UNL1       -0.1681
      4 N          63.0625   84.4943   13.3951 N.ar    1  UNL1       -0.2287
      5 C          64.1445   85.0688   14.2606 C.ar    1  UNL1        0.0990
      6 C          64.2592   86.5316   13.9494 C.ar    1  UNL1        0.0337
      7 C          64.9989   87.7908   14.2921 C.3     1  UNL1        0.1235
      8 N          64.4449   88.8987   13.4460 N.pl3   1  UNL1       -0.2703
      9 C          62.6134   83.0632   13.3785 C.ar    1  UNL1        0.0841
     10 C          61.8551   82.5016   14.5446 C.ar    1  UNL1        0.0192
     11 C          61.4060   81.0704   14.5279 C.ar    1  UNL1        0.0029
     12 C          61.7151   80.2009   13.3454 C.ar    1  UNL1        0.0184
     13 C          62.4734   80.7625   12.1794 C.ar    1  UNL1        0.1072
     14 C          62.9225   82.1937   12.1960 C.ar    1  UNL1        0.0375
     15 S          62.7826   79.8931   10.9969 S.O2    1  UNL1        0.0105
     16 C          63.0918   79.0236    9.8144 C.3     1  UNL1        0.1816
     17 O          63.1274   81.1108   10.1917 O.2     1  UNL1       -0.1686
     18 O          62.4378   78.6754   11.8021 O.2     1  UNL1       -0.1686
     19 C          64.8940   90.3297   13.4625 C.ar    1  UNL1        0.2206
     20 N          64.4696   91.2617   12.3664 N.ar    1  UNL1       -0.2123
     21 C          64.9188   92.6927   12.3830 C.ar    1  UNL1        0.1014
     22 C          65.7923   93.1919   13.4956 C.ar    1  UNL1        0.0479
     23 C          66.2167   92.2599   14.5916 C.ar    1  UNL1        0.1553
     24 N          65.7675   90.8288   14.5751 N.ar    1  UNL1       -0.2099
     25 C          67.0902   92.7590   15.7042 C.3     1  UNL1        0.4348
     26 F          67.9638   93.2582   16.8167 F       1  UNL1       -0.1644
     27 F          68.2696   92.7608   14.7772 F       1  UNL1       -0.1644
     28 F          65.9109   92.7572   16.6310 F       1  UNL1       -0.1644
     29 C          66.2415   94.6230   13.5121 C.3     1  UNL1        0.1666
     30 O          66.0429   95.4854   12.3010 O.3     1  UNL1       -0.3771
     31 H          66.5905   95.1518   11.5732 H       1  UNL1        0.2109
     32 C          62.7460   88.8486   10.1118 C.3     1  UNL1        0.0021
     33 C          62.5400   89.0798   11.5795 C.3     1  UNL1        0.0241
     34 C          61.5112   90.0666   12.0462 C.3     1  UNL1        0.0021
@<TRIPOS>BOND
     1    32    33    1
     2    33    34    1
     3     1    33    1
     4     1     2    1
     5     2     3   ar
     6     3     4   ar
     7     4     9    1
     8     9    10   ar
     9    10    11   ar
    10    11    12   ar
    11    12    13   ar
    12    13    15    1
    13    15    16    1
    14    15    17    2
    15    15    18    2
    16    13    14   ar
    17     4     5   ar
    18     5     6   ar
    19     6     7    1
    20     7     8    1
    21     8    19    1
    22    19    20   ar
    23    20    21   ar
    24    21    22   ar
    25    22    29    1
    26    29    30    1
    27    22    23   ar
    28    23    25    1
    29    25    26    1
    30    25    27    1
    31    25    28    1
    32    23    24   ar
    33     8     1    1
    34    24    19   ar
    35     6     2   ar
    36    14     9   ar
    37    30    31    1
@<TRIPOS>MOLECULE
*****
 34 37 0 0 0
SMALL
GASTEIGER

@<TRIPOS>ATOM
      1 C          63.5055   88.3226   12.7691 C.3     1  UNL1        0.1174
      2 C          63.3546   86.8565   13.0478 C.ar    1  UNL1        0.0961
      3 N          62.6255   85.6118   12.6364 N.ar    1  UNL1       -0.1681
      4 N          63.1104   84.4843   13.4986 N.ar    1  UNL1       -0.2287
      5 C          64.1392   85.0320   14.4428 C.ar    1  UNL1        0.0990
      6 C          64.2901   86.4982   14.1642 C.ar    1  UNL1        0.0337
      7 C          65.0192   87.7428   14.5755 C.3     1  UNL1        0.1235
      8 N          64.5343   88.8705   13.7133 N.pl3   1  UNL1       -0.2703
      9 C          62.6478   83.0591   13.4288 C.ar    1  UNL1        0.0841
     10 C          61.8694   82.4667   14.5660 C.ar    1  UNL1        0.0192
     11 C          61.4068   81.0415   14.4961 C.ar    1  UNL1        0.0029
     12 C          61.7226   80.2087   13.2892 C.ar    1  UNL1        0.0184
     13 C          62.5011   80.8010   12.1521 C.ar    1  UNL1        0.1072
     14 C          62.9637   82.2263   12.2219 C.ar    1  UNL1        0.0375
     15 S          62.8170   79.9683   10.9452 S.O2    1  UNL1        0.0105
     16 C          63.1328   79.1355    9.7383 C.3     1  UNL1        0.1816
     17 O          63.1525   81.2112   10.1753 O.2     1  UNL1       -0.1686
     18 O          62.4815   78.7253   11.7151 O.2     1  UNL1       -0.1686
     19 C          64.9969   90.2956   13.7831 C.ar    1  UNL1        0.2206
     20 N          65.0097   91.0165   15.0985 N.ar    1  UNL1       -0.2123
     21 C          65.4723   92.4416   15.1683 C.ar    1  UNL1        0.1014
     22 C          65.9222   93.1460   13.9226 C.ar    1  UNL1        0.0479
     23 C          65.9094   92.4252   12.6072 C.ar    1  UNL1        0.1553
     24 N          65.4467   91.0000   12.5375 N.ar    1  UNL1       -0.2099
     25 C          66.3592   93.1295   11.3616 C.3     1  UNL1        0.4348
     26 F          66.8089   93.8339   10.1160 F       1  UNL1       -0.1644
     27 F          64.9488   93.5688   11.1009 F       1  UNL1       -0.1644
     28 F          67.7695   92.6902   11.6225 F       1  UNL1       -0.1644
     29 C          66.3848   94.5711   13.9924 C.3     1  UNL1        0.1666
     30 O          66.0586   95.5210   12.8782 O.3     1  UNL1       -0.3771
     31 H          66.5166   95.2411   12.0703 H       1  UNL1        0.2109
     32 C          62.1301   90.4182   12.0858 C.3     1  UNL1        0.0021
     33 C          62.7587   89.1039   11.7289 C.3     1  UNL1        0.0241
     34 C          62.6406   88.5708   10.3318 C.3     1  UNL1        0.0021
@<TRIPOS>BOND
     1    32    33    1
     2    33    34    1
     3     1    33    1
     4     1     2    1
     5     2     3   ar
     6     3     4   ar
     7     4     9    1
     8     9    10   ar
     9    10    11   ar
    10    11    12   ar
    11    12    13   ar
    12    13    15    1
    13    15    16    1
    14    15    17    2
    15    15    18    2
    16    13    14   ar
    17     4     5   ar
    18     5     6   ar
    19     6     7    1
    20     7     8    1
    21     8    19    1
    22    19    20   ar
    23    20    21   ar
    24    21    22   ar
    25    22    29    1
    26    29    30    1
    27    22    23   ar
    28    23    25    1
    29    25    26    1
    30    25    27    1
    31    25    28    1
    32    23    24   ar
    33     8     1    1
    34    24    19   ar
    35     6     2   ar
    36    14     9   ar
    37    30    31    1
@<TRIPOS>MOLECULE
*****
 34 37 0 0 0
SMALL
GASTEIGER

@<TRIPOS>ATOM
      1 C          63.5057   88.3609   12.7241 C.3     1  UNL1        0.1174
      2 C          63.3484   86.8977   13.0144 C.ar    1  UNL1        0.0961
      3 N          62.6214   85.6508   12.6060 N.ar    1  UNL1       -0.1681
      4 N          63.0938   84.5302   13.4840 N.ar    1  UNL1       -0.2287
      5 C          64.1128   85.0844   14.4351 C.ar    1  UNL1        0.0990
      6 C          64.2701   86.5477   14.1448 C.ar    1  UNL1        0.0337
      7 C          64.9971   87.7945   14.5532 C.3     1  UNL1        0.1235
      8 N          64.5247   88.9152   13.6751 N.pl3   1  UNL1       -0.2703
      9 C          62.6290   83.1054   13.4219 C.ar    1  UNL1        0.0841
     10 C          61.8451   82.5220   14.5600 C.ar    1  UNL1        0.0192
     11 C          61.3803   81.0971   14.4978 C.ar    1  UNL1        0.0029
     12 C          61.6993   80.2557   13.2977 C.ar    1  UNL1        0.0184
     13 C          62.4831   80.8392   12.1597 C.ar    1  UNL1        0.1072
     14 C          62.9480   82.2640   12.2218 C.ar    1  UNL1        0.0375
     15 S          62.8022   79.9979   10.9595 S.O2    1  UNL1        0.0105
     16 C          63.1212   79.1566    9.7593 C.3     1  UNL1        0.1816
     17 O          62.4503   78.7615   11.7325 O.2     1  UNL1       -0.1686
     18 O          63.1541   81.2343   10.1864 O.2     1  UNL1       -0.1686
     19 C          64.9895   90.3399   13.7372 C.ar    1  UNL1        0.2206
     20 N          65.0211   91.0620   15.0517 N.ar    1  UNL1       -0.2123
     21 C          65.4860   92.4867   15.1138 C.ar    1  UNL1        0.1014
     22 C          65.9193   93.1896   13.8614 C.ar    1  UNL1        0.0479
     23 C          65.8878   92.4676   12.5469 C.ar    1  UNL1        0.1553
     24 N          65.4228   91.0428   12.4849 N.ar    1  UNL1       -0.2099
     25 C          66.3211   93.1704   11.2947 C.3     1  UNL1        0.4348
     26 F          66.7545   93.8731   10.0424 F       1  UNL1       -0.1644
     27 F          67.7391   92.7539   11.5517 F       1  UNL1       -0.1644
     28 F          64.9032   93.5868   11.0377 F       1  UNL1       -0.1644
     29 C          66.3842   94.6144   13.9235 C.3     1  UNL1        0.1666
     30 O          66.0580   95.5592   12.8050 O.3     1  UNL1       -0.3771
     31 H          66.5145   95.2745   11.9979 H       1  UNL1        0.2109
     32 C          62.5070   88.5100   10.3303 C.3     1  UNL1        0.0021
     33 C          62.7727   89.1341   11.6682 C.3     1  UNL1        0.0241
     34 C          62.3055   90.5313   11.9502 C.3     1  UNL1        0.0021
@<TRIPOS>BOND
     1    32    33    1
     2    33    34    1
     3     1    33    1
     4     1     2    1
     5     2     3   ar
     6     3     4   ar
     7     4     9    1
     8     9    10   ar
     9    10    11   ar
    10    11    12   ar
    11    12    13   ar
    12    13    15    1
    13    15    16    1
    14    15    17    2
    15    15    18    2
    16    13    14   ar
    17     4     5   ar
    18     5     6   ar
    19     6     7    1
    20     7     8    1
    21     8    19    1
    22    19    20   ar
    23    20    21   ar
    24    21    22   ar
    25    22    29    1
    26    29    30    1
    27    22    23   ar
    28    23    25    1
    29    25    26    1
    30    25    27    1
    31    25    28    1
    32    23    24   ar
    33     8     1    1
    34    24    19   ar
    35     6     2   ar
    36    14     9   ar
    37    30    31    1
@<TRIPOS>MOLECULE
*****
 34 37 0 0 0
SMALL
GASTEIGER

@<TRIPOS>ATOM
      1 C          64.3613   91.1320   12.1001 C.3     1  UNL1        0.1174
      2 C          64.2077   90.0712   13.1495 C.ar    1  UNL1        0.0961
      3 N          63.4272   88.8498   13.5352 N.ar    1  UNL1       -0.1681
      4 N          63.9593   88.3550   14.8475 N.ar    1  UNL1       -0.2287
      5 C          65.0687   89.2706   15.2728 C.ar    1  UNL1        0.0990
      6 C          65.2222   90.3313   14.2234 C.ar    1  UNL1        0.0337
      7 C          66.0028   91.5528   13.8377 C.3     1  UNL1        0.1235
      8 N          65.4707   92.0477   12.5254 N.pl3   1  UNL1       -0.2703
      9 C          63.4682   87.1551   15.6020 C.ar    1  UNL1        0.0841
     10 C          62.9847   87.3034   17.0142 C.ar    1  UNL1        0.0192
     11 C          62.4937   86.1035   17.7686 C.ar    1  UNL1        0.0029
     12 C          62.4860   84.7554   17.1110 C.ar    1  UNL1        0.0184
     13 C          62.9695   84.6071   15.6988 C.ar    1  UNL1        0.1072
     14 C          63.4606   85.8070   14.9443 C.ar    1  UNL1        0.0375
     15 S          62.9619   83.2591   15.0411 S.O2    1  UNL1        0.0105
     16 C          62.9544   81.9110   14.3834 C.3     1  UNL1        0.1816
     17 O          61.6319   83.5692   14.4206 O.2     1  UNL1       -0.1686
     18 O          64.2919   82.9489   15.6616 O.2     1  UNL1       -0.1686
     19 C          65.9618   93.2474   11.7709 C.ar    1  UNL1        0.2206
     20 N          65.7493   94.6233   12.3294 N.ar    1  UNL1       -0.2123
     21 C          66.2404   95.8231   11.5750 C.ar    1  UNL1        0.1014
     22 C          66.9440   95.6471   10.2619 C.ar    1  UNL1        0.0479
     23 C          67.1565   94.2712    9.7034 C.ar    1  UNL1        0.1553
     24 N          66.6653   93.0714   10.4579 N.ar    1  UNL1       -0.2099
     25 C          67.8600   94.0953    8.3903 C.3     1  UNL1        0.4348
     26 F          68.5635   93.9193    7.0773 F       1  UNL1       -0.1644
     27 F          66.6343   94.5733    7.6697 F       1  UNL1       -0.1644
     28 F          69.0856   93.6173    9.1111 F       1  UNL1       -0.1644
     29 C          67.4351   96.8469    9.5074 C.3     1  UNL1        0.1666
     30 O          67.6211   96.7736    8.0208 O.3     1  UNL1       -0.3771
     31 H          68.3341   96.1492    7.8146 H       1  UNL1        0.2109
     32 C          62.4426   90.2801   10.5695 C.3     1  UNL1        0.0021
     33 C          63.5482   91.2554   10.8457 C.3     1  UNL1        0.0241
     34 C          63.8408   92.3542    9.8674 C.3     1  UNL1        0.0021
@<TRIPOS>BOND
     1    32    33    1
     2    33    34    1
     3     1    33    1
     4     1     2    1
     5     2     3   ar
     6     3     4   ar
     7     4     9    1
     8     9    10   ar
     9    10    11   ar
    10    11    12   ar
    11    12    13   ar
    12    13    15    1
    13    15    16    1
    14    15    17    2
    15    15    18    2
    16    13    14   ar
    17     4     5   ar
    18     5     6   ar
    19     6     7    1
    20     7     8    1
    21     8    19    1
    22    19    20   ar
    23    20    21   ar
    24    21    22   ar
    25    22    29    1
    26    29    30    1
    27    22    23   ar
    28    23    25    1
    29    25    26    1
    30    25    27    1
    31    25    28    1
    32    23    24   ar
    33     8     1    1
    34    24    19   ar
    35     6     2   ar
    36    14     9   ar
    37    30    31    1
