@<TRIPOS>MOLECULE
*****
 28 30 0 0 0
SMALL
GASTEIGER

@<TRIPOS>ATOM
      1 C          64.2350   89.6386   14.3601 C.3     1  UNL1        0.0542
      2 C          64.6491   90.2522   15.6647 C.3     1  UNL1        0.0090
      3 C          65.2763   91.6146   15.6871 C.3     1  UNL1        0.0220
      4 C          65.4893   92.3634   14.4049 C.3     1  UNL1        0.0950
      5 N          65.0752   91.7498   13.1004 N.am    1  UNL1       -0.2636
      6 C          65.2883   92.4986   11.8182 C.2     1  UNL1        0.3077
      7 O          64.8742   91.8849   10.5136 O.2     1  UNL1       -0.2522
      8 N          65.9154   93.8610   11.8407 N.am    1  UNL1       -0.2681
      9 C          64.4481   90.3874   13.0779 C.3     1  UNL1        0.1004
     10 H          66.1872   94.2638   12.6969 H       1  UNL1        0.1564
     11 C          66.1285   94.6097   10.5585 C.ar    1  UNL1        0.0516
     12 C          67.1194   94.1056    9.5514 C.ar    1  UNL1        0.0156
     13 C          67.3325   94.8543    8.2693 C.ar    1  UNL1        0.0127
     14 C          66.5546   96.1070    7.9940 C.ar    1  UNL1        0.0578
     15 CL         66.7677   96.8557    6.7118 Cl      1  UNL1       -0.0822
     16 C          65.5638   96.6111    9.0010 C.ar    1  UNL1        0.0127
     17 C          65.3507   95.8624   10.2833 C.ar    1  UNL1        0.0156
     18 C          63.8292   88.5447   15.3029 C.ar    1  UNL1        0.0599
     19 C          63.1204   88.8811   16.5813 C.ar    1  UNL1        0.0148
     20 C          62.7146   87.7872   17.5240 C.ar    1  UNL1        0.0028
     21 C          63.0176   86.3570   17.1883 C.ar    1  UNL1        0.0207
     22 C          63.7264   86.0207   15.9099 C.ar    1  UNL1        0.0984
     23 N          64.1322   87.1145   14.9672 N.ar    1  UNL1       -0.2481
     24 C          63.6800   88.6451   13.3829 C.3     1  UNL1        0.0131
     25 C          63.0768   89.1179   12.0935 C.3     1  UNL1        0.0421
     26 O          60.5462   88.6164   11.7856 O.co2   1  UNL1       -0.5492
     27 C          61.9784   88.3283   11.4453 C.2     1  UNL1        0.0503
     28 O          62.3123   87.2506   10.4568 O.co2   1  UNL1       -0.5492
@<TRIPOS>UNITY_ATOM_ATTR
26 1
charge -1
@<TRIPOS>BOND
     1    26    27   ar
     2    27    28   ar
     3    27    25    1
     4    25    24    1
     5    24     1    1
     6     1    18    1
     7    18    19   ar
     8    19    20   ar
     9    20    21   ar
    10    21    22   ar
    11    22    23   ar
    12     1     2    1
    13     2     3    1
    14     3     4    1
    15     4     5    1
    16     5     6   am
    17     6     7    2
    18     6     8   am
    19     8    11    1
    20    11    12   ar
    21    12    13   ar
    22    13    14   ar
    23    14    15    1
    24    14    16   ar
    25    16    17   ar
    26     5     9    1
    27     9     1    1
    28    23    18   ar
    29    17    11   ar
    30     8    10    1
@<TRIPOS>MOLECULE
*****
 28 30 0 0 0
SMALL
GASTEIGER

@<TRIPOS>ATOM
      1 C          65.8227   91.7442   13.8024 C.3     1  UNL1        0.0542
      2 C          65.3769   91.4000   15.1926 C.3     1  UNL1        0.0090
      3 C          64.1607   90.5470   15.4005 C.3     1  UNL1        0.0220
      4 C          63.3903   90.0383   14.2182 C.3     1  UNL1        0.0950
      5 N          63.8362   90.3825   12.8280 N.am    1  UNL1       -0.2636
      6 C          63.0658   89.8738   11.6457 C.2     1  UNL1        0.3077
      7 O          63.5117   90.2181   10.2556 O.2     1  UNL1       -0.2522
      8 N          61.8496   89.0209   11.8537 N.am    1  UNL1       -0.2681
      9 C          65.0524   91.2355   12.6201 C.3     1  UNL1        0.1004
     10 H          61.5569   88.7949   12.7661 H       1  UNL1        0.1564
     11 C          61.0793   88.5122   10.6714 C.ar    1  UNL1        0.0516
     12 C          60.4166   89.4793    9.7356 C.ar    1  UNL1        0.0156
     13 C          59.6464   88.9707    8.5533 C.ar    1  UNL1        0.0127
     14 C          59.5386   87.4950    8.3067 C.ar    1  UNL1        0.0578
     15 CL         58.7683   86.9864    7.1243 Cl      1  UNL1       -0.0822
     16 C          60.2012   86.5279    9.2425 C.ar    1  UNL1        0.0127
     17 C          60.9716   87.0366   10.4248 C.ar    1  UNL1        0.0156
     18 C          66.8749   92.4587   14.5978 C.ar    1  UNL1        0.0599
     19 C          67.8133   91.6795   15.4708 C.ar    1  UNL1        0.0148
     20 C          68.8654   92.3940   16.2662 C.ar    1  UNL1        0.0028
     21 C          68.9791   93.8876   16.1884 C.ar    1  UNL1        0.0207
     22 C          68.0407   94.6668   15.3154 C.ar    1  UNL1        0.0984
     23 N          66.9886   93.9523   14.5200 N.ar    1  UNL1       -0.2481
     24 C          66.6340   92.3366   12.6884 C.3     1  UNL1        0.0131
     25 C          65.9592   92.7884   11.4273 C.3     1  UNL1        0.0421
     26 O          67.8629   94.0516   10.1902 O.co2   1  UNL1       -0.5492
     27 C          66.4552   94.0067   10.7063 C.2     1  UNL1        0.0503
     28 O          65.5434   95.1800   10.5015 O.co2   1  UNL1       -0.5492
@<TRIPOS>UNITY_ATOM_ATTR
26 1
charge -1
@<TRIPOS>BOND
     1    26    27   ar
     2    27    28   ar
     3    27    25    1
     4    25    24    1
     5    24     1    1
     6     1    18    1
     7    18    19   ar
     8    19    20   ar
     9    20    21   ar
    10    21    22   ar
    11    22    23   ar
    12     1     2    1
    13     2     3    1
    14     3     4    1
    15     4     5    1
    16     5     6   am
    17     6     7    2
    18     6     8   am
    19     8    11    1
    20    11    12   ar
    21    12    13   ar
    22    13    14   ar
    23    14    15    1
    24    14    16   ar
    25    16    17   ar
    26     5     9    1
    27     9     1    1
    28    23    18   ar
    29    17    11   ar
    30     8    10    1
@<TRIPOS>MOLECULE
*****
 28 30 0 0 0
SMALL
GASTEIGER

@<TRIPOS>ATOM
      1 C          65.7136   91.7269   13.4565 C.3     1  UNL1        0.0542
      2 C          66.1422   92.8735   12.5896 C.3     1  UNL1        0.0090
      3 C          65.5342   93.0542   11.2303 C.3     1  UNL1        0.0220
      4 C          64.4977   92.0882   10.7379 C.3     1  UNL1        0.0950
      5 N          64.0691   90.9416   11.6048 N.am    1  UNL1       -0.2636
      6 C          63.0325   89.9756   11.1123 C.2     1  UNL1        0.3077
      7 O          62.6040   88.8290   11.9793 O.2     1  UNL1       -0.2522
      8 N          62.4246   90.1563    9.7530 N.am    1  UNL1       -0.2681
      9 C          64.6770   90.7609   12.9641 C.3     1  UNL1        0.1004
     10 H          62.7059   90.9088    9.1840 H       1  UNL1        0.1564
     11 C          61.3881   89.1903    9.2607 C.ar    1  UNL1        0.0516
     12 C          61.4952   87.7345    9.6065 C.ar    1  UNL1        0.0156
     13 C          60.4588   86.7685    9.1143 C.ar    1  UNL1        0.0127
     14 C          59.3151   87.2580    8.2761 C.ar    1  UNL1        0.0578
     15 CL         58.2786   86.2919    7.7838 Cl      1  UNL1       -0.0822
     16 C          59.2079   88.7137    7.9303 C.ar    1  UNL1        0.0127
     17 C          60.2445   89.6798    8.4226 C.ar    1  UNL1        0.0156
     18 C          66.7231   92.3726   14.3589 C.ar    1  UNL1        0.0599
     19 C          67.5964   91.5246   15.2353 C.ar    1  UNL1        0.0148
     20 C          68.6059   92.1702   16.1376 C.ar    1  UNL1        0.0028
     21 C          68.7419   93.6638   16.1635 C.ar    1  UNL1        0.0207
     22 C          67.8685   94.5118   15.2871 C.ar    1  UNL1        0.0984
     23 N          66.8591   93.8662   14.3848 N.ar    1  UNL1       -0.2481
     24 C          65.6356   90.8045   14.6368 C.3     1  UNL1        0.0131
     25 C          64.4140   89.9605   14.8496 C.3     1  UNL1        0.0421
     26 O          63.5282   91.6586   16.6051 O.co2   1  UNL1       -0.5492
     27 C          63.4176   90.3360   15.9061 C.2     1  UNL1        0.0503
     28 O          62.3107   89.3889   16.2635 O.co2   1  UNL1       -0.5492
@<TRIPOS>UNITY_ATOM_ATTR
26 1
charge -1
@<TRIPOS>BOND
     1    26    27   ar
     2    27    28   ar
     3    27    25    1
     4    25    24    1
     5    24     1    1
     6     1    18    1
     7    18    19   ar
     8    19    20   ar
     9    20    21   ar
    10    21    22   ar
    11    22    23   ar
    12     1     2    1
    13     2     3    1
    14     3     4    1
    15     4     5    1
    16     5     6   am
    17     6     7    2
    18     6     8   am
    19     8    11    1
    20    11    12   ar
    21    12    13   ar
    22    13    14   ar
    23    14    15    1
    24    14    16   ar
    25    16    17   ar
    26     5     9    1
    27     9     1    1
    28    23    18   ar
    29    17    11   ar
    30     8    10    1
@<TRIPOS>MOLECULE
*****
 28 30 0 0 0
SMALL
GASTEIGER

@<TRIPOS>ATOM
      1 C          63.9520   88.1128   14.6829 C.3     1  UNL1        0.0542
      2 C          63.8342   87.8740   16.1590 C.3     1  UNL1        0.0090
      3 C          63.5827   86.4889   16.6770 C.3     1  UNL1        0.0220
      4 C          63.4491   85.3426   15.7187 C.3     1  UNL1        0.0950
      5 N          63.5668   85.5814   14.2426 N.am    1  UNL1       -0.2636
      6 C          63.4332   84.4351   13.2843 C.2     1  UNL1        0.3077
      7 O          63.5510   84.6741   11.8082 O.2     1  UNL1       -0.2522
      8 N          63.1817   83.0500   13.8022 N.am    1  UNL1       -0.2681
      9 C          63.8183   86.9665   13.7246 C.3     1  UNL1        0.1004
     10 H          63.1044   82.8933   14.7711 H       1  UNL1        0.1564
     11 C          63.0481   81.9039   12.8439 C.ar    1  UNL1        0.0516
     12 C          62.6189   80.5557   13.3424 C.ar    1  UNL1        0.0156
     13 C          62.4853   79.4095   12.3842 C.ar    1  UNL1        0.0127
     14 C          62.7808   79.6113   10.9275 C.ar    1  UNL1        0.0578
     15 CL         62.6471   78.4651    9.9692 Cl      1  UNL1       -0.0822
     16 C          63.2099   80.9594   10.4290 C.ar    1  UNL1        0.0127
     17 C          63.3436   82.1057   11.3873 C.ar    1  UNL1        0.0156
     18 C          64.1505   89.5107   15.1896 C.ar    1  UNL1        0.0599
     19 C          65.2185   90.3795   14.5944 C.ar    1  UNL1        0.0148
     20 C          65.4170   91.7773   15.1011 C.ar    1  UNL1        0.0028
     21 C          64.5474   92.3062   16.2030 C.ar    1  UNL1        0.0207
     22 C          63.4794   91.4373   16.7981 C.ar    1  UNL1        0.0984
     23 N          63.2809   90.0396   16.2914 N.ar    1  UNL1       -0.2481
     24 C          64.1387   88.8371   13.3827 C.3     1  UNL1        0.0131
     25 C          63.1655   88.6273   12.2608 C.3     1  UNL1        0.0421
     26 O          62.5284   90.8632   11.1011 O.co2   1  UNL1       -0.5492
     27 C          62.1473   89.6824   11.9439 C.2     1  UNL1        0.0503
     28 O          60.7483   89.5565   12.4699 O.co2   1  UNL1       -0.5492
@<TRIPOS>UNITY_ATOM_ATTR
26 1
charge -1
@<TRIPOS>BOND
     1    26    27   ar
     2    27    28   ar
     3    27    25    1
     4    25    24    1
     5    24     1    1
     6     1    18    1
     7    18    19   ar
     8    19    20   ar
     9    20    21   ar
    10    21    22   ar
    11    22    23   ar
    12     1     2    1
    13     2     3    1
    14     3     4    1
    15     4     5    1
    16     5     6   am
    17     6     7    2
    18     6     8   am
    19     8    11    1
    20    11    12   ar
    21    12    13   ar
    22    13    14   ar
    23    14    15    1
    24    14    16   ar
    25    16    17   ar
    26     5     9    1
    27     9     1    1
    28    23    18   ar
    29    17    11   ar
    30     8    10    1
@<TRIPOS>MOLECULE
*****
 28 30 0 0 0
SMALL
GASTEIGER

@<TRIPOS>ATOM
      1 C          63.0563   84.4711   13.5123 C.3     1  UNL1        0.0542
      2 C          63.3651   84.0451   14.9170 C.3     1  UNL1        0.0090
      3 C          63.9781   85.0195   15.8786 C.3     1  UNL1        0.0220
      4 C          64.2824   86.4199   15.4355 C.3     1  UNL1        0.0950
      5 N          63.9735   86.8459   14.0309 N.am    1  UNL1       -0.2636
      6 C          64.2778   88.2463   13.5878 C.2     1  UNL1        0.3077
      7 O          63.9689   88.6722   12.1831 O.2     1  UNL1       -0.2522
      8 N          64.8908   89.2207   14.5494 N.am    1  UNL1       -0.2681
      9 C          63.3605   85.8715   13.0692 C.3     1  UNL1        0.1004
     10 H          65.0935   88.9411   15.4714 H       1  UNL1        0.1564
     11 C          65.1950   90.6211   14.1063 C.ar    1  UNL1        0.0516
     12 C          64.6684   91.1237   12.7947 C.ar    1  UNL1        0.0156
     13 C          64.9725   92.5240   12.3515 C.ar    1  UNL1        0.0127
     14 C          65.8033   93.4218   13.2198 C.ar    1  UNL1        0.0578
     15 CL         66.1075   94.8222   12.7765 Cl      1  UNL1       -0.0822
     16 C          66.3299   92.9192   14.5313 C.ar    1  UNL1        0.0127
     17 C          66.0257   91.5188   14.9745 C.ar    1  UNL1        0.0156
     18 C          62.5883   83.0468   13.4614 C.ar    1  UNL1        0.0599
     19 C          63.0984   82.1276   12.3915 C.ar    1  UNL1        0.0148
     20 C          62.6304   80.7034   12.3406 C.ar    1  UNL1        0.0028
     21 C          61.6524   80.1984   13.3596 C.ar    1  UNL1        0.0207
     22 C          61.1424   81.1176   14.4296 C.ar    1  UNL1        0.0984
     23 N          61.6103   82.5418   14.4805 N.ar    1  UNL1       -0.2481
     24 C          62.5849   84.4024   12.0899 C.3     1  UNL1        0.0131
     25 C          61.9355   85.5970   11.4566 C.3     1  UNL1        0.0421
     26 O          60.6205   86.3152    9.3341 O.co2   1  UNL1       -0.5492
     27 C          61.8300   85.6896    9.9631 C.2     1  UNL1        0.0503
     28 O          62.9341   85.1566    9.0989 O.co2   1  UNL1       -0.5492
@<TRIPOS>UNITY_ATOM_ATTR
26 1
charge -1
@<TRIPOS>BOND
     1    26    27   ar
     2    27    28   ar
     3    27    25    1
     4    25    24    1
     5    24     1    1
     6     1    18    1
     7    18    19   ar
     8    19    20   ar
     9    20    21   ar
    10    21    22   ar
    11    22    23   ar
    12     1     2    1
    13     2     3    1
    14     3     4    1
    15     4     5    1
    16     5     6   am
    17     6     7    2
    18     6     8   am
    19     8    11    1
    20    11    12   ar
    21    12    13   ar
    22    13    14   ar
    23    14    15    1
    24    14    16   ar
    25    16    17   ar
    26     5     9    1
    27     9     1    1
    28    23    18   ar
    29    17    11   ar
    30     8    10    1
@<TRIPOS>MOLECULE
*****
 28 30 0 0 0
SMALL
GASTEIGER

@<TRIPOS>ATOM
      1 C          63.8547   87.8025   14.2625 C.3     1  UNL1        0.0542
      2 C          63.4277   88.6639   13.1112 C.3     1  UNL1        0.0090
      3 C          62.9669   88.0312   11.8316 C.3     1  UNL1        0.0220
      4 C          62.9332   86.5370   11.7034 C.3     1  UNL1        0.0950
      5 N          63.3602   85.6756   12.8547 N.am    1  UNL1       -0.2636
      6 C          63.3265   84.1815   12.7264 C.2     1  UNL1        0.3077
      7 O          63.7536   83.3201   13.8778 O.2     1  UNL1       -0.2522
      8 N          62.8657   83.5488   11.4468 N.am    1  UNL1       -0.2681
      9 C          63.8210   86.3083   14.1343 C.3     1  UNL1        0.1004
     10 H          62.5854   84.1142   10.6911 H       1  UNL1        0.1564
     11 C          62.8321   82.0547   11.3186 C.ar    1  UNL1        0.0516
     12 C          63.1369   81.4081    9.9998 C.ar    1  UNL1        0.0156
     13 C          63.1033   79.9140    9.8716 C.ar    1  UNL1        0.0127
     14 C          62.7648   79.0664   11.0620 C.ar    1  UNL1        0.0578
     15 CL         62.7311   77.5723   10.9338 Cl      1  UNL1       -0.0822
     16 C          62.4599   79.7130   12.3808 C.ar    1  UNL1        0.0127
     17 C          62.4936   81.2072   12.5090 C.ar    1  UNL1        0.0156
     18 C          64.0617   89.1614   14.8631 C.ar    1  UNL1        0.0599
     19 C          65.1261   90.0675   14.3192 C.ar    1  UNL1        0.0148
     20 C          65.3331   91.4263   14.9198 C.ar    1  UNL1        0.0028
     21 C          64.4757   91.8790   16.0643 C.ar    1  UNL1        0.0207
     22 C          63.4113   90.9728   16.6082 C.ar    1  UNL1        0.0984
     23 N          63.2043   89.6140   16.0076 N.ar    1  UNL1       -0.2481
     24 C          64.3537   87.4130   15.6224 C.3     1  UNL1        0.0131
     25 C          63.7864   86.2083   16.3128 C.3     1  UNL1        0.0421
     26 O          61.2484   86.0449   16.8440 O.co2   1  UNL1       -0.5492
     27 C          62.6485   86.3633   17.2779 C.2     1  UNL1        0.0503
     28 O          62.9109   86.8368   18.6768 O.co2   1  UNL1       -0.5492
@<TRIPOS>UNITY_ATOM_ATTR
26 1
charge -1
@<TRIPOS>BOND
     1    26    27   ar
     2    27    28   ar
     3    27    25    1
     4    25    24    1
     5    24     1    1
     6     1    18    1
     7    18    19   ar
     8    19    20   ar
     9    20    21   ar
    10    21    22   ar
    11    22    23   ar
    12     1     2    1
    13     2     3    1
    14     3     4    1
    15     4     5    1
    16     5     6   am
    17     6     7    2
    18     6     8   am
    19     8    11    1
    20    11    12   ar
    21    12    13   ar
    22    13    14   ar
    23    14    15    1
    24    14    16   ar
    25    16    17   ar
    26     5     9    1
    27     9     1    1
    28    23    18   ar
    29    17    11   ar
    30     8    10    1
@<TRIPOS>MOLECULE
*****
 28 30 0 0 0
SMALL
GASTEIGER

@<TRIPOS>ATOM
      1 C          63.3555   83.3442   12.2920 C.3     1  UNL1        0.0542
      2 C          62.5714   83.6295   11.0455 C.3     1  UNL1        0.0090
      3 C          62.2229   85.0435   10.6859 C.3     1  UNL1        0.0220
      4 C          62.6585   86.1721   11.5728 C.3     1  UNL1        0.0950
      5 N          63.4426   85.8867   12.8192 N.am    1  UNL1       -0.2636
      6 C          63.8783   87.0153   13.7061 C.2     1  UNL1        0.3077
      7 O          64.6624   86.7299   14.9526 O.2     1  UNL1       -0.2522
      8 N          63.5298   88.4293   13.3465 N.am    1  UNL1       -0.2681
      9 C          63.7912   84.4728   13.1789 C.3     1  UNL1        0.1004
     10 H          63.0151   88.6166   12.5284 H       1  UNL1        0.1564
     11 C          63.9654   89.5578   14.2334 C.ar    1  UNL1        0.0516
     12 C          65.0489   90.4916   13.7813 C.ar    1  UNL1        0.0156
     13 C          65.4846   91.6201   14.6682 C.ar    1  UNL1        0.0127
     14 C          64.8369   91.8149   16.0071 C.ar    1  UNL1        0.0578
     15 CL         65.2726   92.9435   16.8940 Cl      1  UNL1       -0.0822
     16 C          63.7535   90.8811   16.4591 C.ar    1  UNL1        0.0127
     17 C          63.3178   89.7526   15.5722 C.ar    1  UNL1        0.0156
     18 C          63.1698   81.9481   11.7757 C.ar    1  UNL1        0.0599
     19 C          63.4069   81.6469   10.3256 C.ar    1  UNL1        0.0148
     20 C          63.2212   80.2509    9.8094 C.ar    1  UNL1        0.0028
     21 C          62.7984   79.1559   10.7434 C.ar    1  UNL1        0.0207
     22 C          62.5614   79.4571   12.1936 C.ar    1  UNL1        0.0984
     23 N          62.7471   80.8532   12.7098 N.ar    1  UNL1       -0.2481
     24 C          64.0752   82.5740   13.3592 C.3     1  UNL1        0.0131
     25 C          63.9395   82.9788   14.7971 C.3     1  UNL1        0.0421
     26 O          61.4168   82.3902   14.9958 O.co2   1  UNL1       -0.5492
     27 C          62.5825   83.2553   15.3736 C.2     1  UNL1        0.0503
     28 O          62.3914   84.3967   16.3277 O.co2   1  UNL1       -0.5492
@<TRIPOS>UNITY_ATOM_ATTR
26 1
charge -1
@<TRIPOS>BOND
     1    26    27   ar
     2    27    28   ar
     3    27    25    1
     4    25    24    1
     5    24     1    1
     6     1    18    1
     7    18    19   ar
     8    19    20   ar
     9    20    21   ar
    10    21    22   ar
    11    22    23   ar
    12     1     2    1
    13     2     3    1
    14     3     4    1
    15     4     5    1
    16     5     6   am
    17     6     7    2
    18     6     8   am
    19     8    11    1
    20    11    12   ar
    21    12    13   ar
    22    13    14   ar
    23    14    15    1
    24    14    16   ar
    25    16    17   ar
    26     5     9    1
    27     9     1    1
    28    23    18   ar
    29    17    11   ar
    30     8    10    1
@<TRIPOS>MOLECULE
*****
 28 30 0 0 0
SMALL
GASTEIGER

@<TRIPOS>ATOM
      1 C          56.2531   94.9014   -3.3222 C.3     1  UNL1        0.0542
      2 C          55.9710   96.3014   -2.8637 C.3     1  UNL1        0.0090
      3 C          56.6828   96.8560   -1.6655 C.3     1  UNL1        0.0220
      4 C          57.6768   96.0104   -0.9257 C.3     1  UNL1        0.0950
      5 N          57.9589   94.6104   -1.3843 N.am    1  UNL1       -0.2636
      6 C          58.9529   93.7649   -0.6446 C.2     1  UNL1        0.3077
      7 O          59.2349   92.3648   -1.1032 O.2     1  UNL1       -0.2522
      8 N          59.6647   94.3194    0.5537 N.am    1  UNL1       -0.2681
      9 C          57.2471   94.0559   -2.5825 C.3     1  UNL1        0.1004
     10 H          59.4795   95.2383    0.8547 H       1  UNL1        0.1564
     11 C          60.6586   93.4738    1.2933 C.ar    1  UNL1        0.0516
     12 C          60.2863   92.8567    2.6089 C.ar    1  UNL1        0.0156
     13 C          61.2801   92.0111    3.3486 C.ar    1  UNL1        0.0127
     14 C          62.6463   91.7826    2.7728 C.ar    1  UNL1        0.0578
     15 CL         63.6402   90.9370    3.5125 Cl      1  UNL1       -0.0822
     16 C          63.0185   92.3997    1.4573 C.ar    1  UNL1        0.0127
     17 C          62.0246   93.2453    0.7175 C.ar    1  UNL1        0.0156
     18 C          55.2343   95.3100   -4.3446 C.ar    1  UNL1        0.0599
     19 C          55.5109   95.1018   -5.8040 C.ar    1  UNL1        0.0148
     20 C          54.4921   95.5103   -6.8262 C.ar    1  UNL1        0.0028
     21 C          53.1966   96.1271   -6.3890 C.ar    1  UNL1        0.0207
     22 C          52.9199   96.3354   -4.9295 C.ar    1  UNL1        0.0984
     23 N          53.9387   95.9268   -3.9073 N.ar    1  UNL1       -0.2481
     24 C          56.1814   93.6433   -4.1359 C.3     1  UNL1        0.0131
     25 C          56.3477   92.3093   -3.4704 C.3     1  UNL1        0.0421
     26 O          55.7712   91.0273   -5.6554 O.co2   1  UNL1       -0.5492
     27 C          55.8756   91.0634   -4.1595 C.2     1  UNL1        0.0503
     28 O          55.5080   89.8535   -3.3526 O.co2   1  UNL1       -0.5492
@<TRIPOS>UNITY_ATOM_ATTR
26 1
charge -1
@<TRIPOS>BOND
     1    26    27   ar
     2    27    28   ar
     3    27    25    1
     4    25    24    1
     5    24     1    1
     6     1    18    1
     7    18    19   ar
     8    19    20   ar
     9    20    21   ar
    10    21    22   ar
    11    22    23   ar
    12     1     2    1
    13     2     3    1
    14     3     4    1
    15     4     5    1
    16     5     6   am
    17     6     7    2
    18     6     8   am
    19     8    11    1
    20    11    12   ar
    21    12    13   ar
    22    13    14   ar
    23    14    15    1
    24    14    16   ar
    25    16    17   ar
    26     5     9    1
    27     9     1    1
    28    23    18   ar
    29    17    11   ar
    30     8    10    1
@<TRIPOS>MOLECULE
*****
 28 30 0 0 0
SMALL
GASTEIGER

@<TRIPOS>ATOM
      1 C          63.0305   84.4562   13.3162 C.3     1  UNL1        0.0542
      2 C          62.1683   84.4374   12.0889 C.3     1  UNL1        0.0090
      3 C          61.9758   85.6912   11.2883 C.3     1  UNL1        0.0220
      4 C          62.6455   86.9638   11.7150 C.3     1  UNL1        0.0950
      5 N          63.5076   86.9826   12.9423 N.am    1  UNL1       -0.2636
      6 C          64.1773   88.2552   13.3691 C.2     1  UNL1        0.3077
      7 O          65.0395   88.2739   14.5964 O.2     1  UNL1       -0.2522
      8 N          63.9848   89.5090   12.5684 N.am    1  UNL1       -0.2681
      9 C          63.7001   85.7288   13.7429 C.3     1  UNL1        0.1004
     10 H          63.4190   89.4967   11.7629 H       1  UNL1        0.1564
     11 C          64.6545   90.7815   12.9952 C.ar    1  UNL1        0.0516
     12 C          65.0103   90.9948   14.4368 C.ar    1  UNL1        0.0156
     13 C          65.6799   92.2672   14.8637 C.ar    1  UNL1        0.0127
     14 C          65.9939   93.3265   13.8490 C.ar    1  UNL1        0.0578
     15 CL         66.6636   94.5990   14.2759 Cl      1  UNL1       -0.0822
     16 C          65.6382   93.1132   12.4075 C.ar    1  UNL1        0.0127
     17 C          64.9685   91.8407   11.9806 C.ar    1  UNL1        0.0156
     18 C          62.6094   83.0165   13.3157 C.ar    1  UNL1        0.0599
     19 C          63.1443   82.0790   12.2741 C.ar    1  UNL1        0.0148
     20 C          62.7233   80.6394   12.2736 C.ar    1  UNL1        0.0028
     21 C          61.7674   80.1372   13.3147 C.ar    1  UNL1        0.0207
     22 C          61.2325   81.0746   14.3563 C.ar    1  UNL1        0.0984
     23 N          61.6535   82.5143   14.3568 N.ar    1  UNL1       -0.2481
     24 C          63.7464   83.9750   14.5434 C.3     1  UNL1        0.0131
     25 C          64.0085   84.9205   15.6780 C.3     1  UNL1        0.0421
     26 O          63.1365   86.3130   17.6905 O.co2   1  UNL1       -0.5492
     27 C          62.8675   85.4335   16.5056 C.2     1  UNL1        0.0503
     28 O          61.4576   85.0669   16.1483 O.co2   1  UNL1       -0.5492
@<TRIPOS>UNITY_ATOM_ATTR
26 1
charge -1
@<TRIPOS>BOND
     1    26    27   ar
     2    27    28   ar
     3    27    25    1
     4    25    24    1
     5    24     1    1
     6     1    18    1
     7    18    19   ar
     8    19    20   ar
     9    20    21   ar
    10    21    22   ar
    11    22    23   ar
    12     1     2    1
    13     2     3    1
    14     3     4    1
    15     4     5    1
    16     5     6   am
    17     6     7    2
    18     6     8   am
    19     8    11    1
    20    11    12   ar
    21    12    13   ar
    22    13    14   ar
    23    14    15    1
    24    14    16   ar
    25    16    17   ar
    26     5     9    1
    27     9     1    1
    28    23    18   ar
    29    17    11   ar
    30     8    10    1
