@<TRIPOS>MOLECULE
*****
 24 26 0 0 0
SMALL
GASTEIGER

@<TRIPOS>ATOM
      1 C          62.9235   83.2177   13.7429 C.3     1  UNL1        0.1154
      2 C          64.4136   81.9687   13.2435 C.3     1  UNL1        0.0335
      3 C          63.6558   82.9939   12.4532 C.3     1  UNL1        0.1377
      4 C          62.7449   84.0659   11.9324 C.3     1  UNL1        0.0613
      5 C          63.0726   84.2904   10.4859 C.3     1  UNL1        0.1290
      6 C          63.5098   84.4034    9.0555 C.3     1  UNL1        0.0305
      7 C          62.8415   85.3882    8.1426 C.3     1  UNL1        0.0025
      8 C          61.7359   86.2600    8.6601 C.3     1  UNL1        0.0002
      9 C          61.2987   86.1469   10.0905 C.3     1  UNL1        0.0025
     10 C          61.9671   85.1621   11.0034 C.3     1  UNL1        0.0305
     11 O          64.1861   83.3571   10.1127 O.3     1  UNL1       -0.2256
     12 O          64.5465   82.5558   11.3285 O.3     1  UNL1       -0.2251
     13 C          63.0790   84.5160   14.4781 C.2     1  UNL1        0.2252
     14 O          62.0873   84.9028   15.5348 O.2     1  UNL1       -0.2750
     15 N          64.2263   85.4273   14.1565 N.am    1  UNL1       -0.3004
     16 H          64.8772   85.1733   13.4629 H       1  UNL1        0.1497
     17 C          64.3817   86.7255   14.8917 C.3     1  UNL1        0.1164
     18 C          64.1342   88.0236   14.1820 C.ar    1  UNL1       -0.0017
     19 C          64.5472   89.3172   14.8190 C.ar    1  UNL1       -0.0026
     20 C          64.2996   90.6153   14.1093 C.ar    1  UNL1        0.0006
     21 C          63.6391   90.6197   12.7626 C.ar    1  UNL1        0.0114
     22 C          63.2261   89.3261   12.1256 C.ar    1  UNL1        0.0574
     23 CL         62.5656   89.3305   10.7789 Cl      1  UNL1       -0.0823
     24 C          63.4736   88.0279   12.8353 C.ar    1  UNL1        0.0088
@<TRIPOS>BOND
     1     2     3    1
     2     3     1    1
     3     1    13    1
     4    13    14    2
     5    13    15   am
     6    15    17    1
     7    17    18    1
     8    18    19   ar
     9    19    20   ar
    10    20    21   ar
    11    21    22   ar
    12    22    23    1
    13    22    24   ar
    14     3     4    1
    15     4     5    1
    16     5     6    1
    17     6     7    1
    18     7     8    1
    19     8     9    1
    20     9    10    1
    21     5    11    1
    22    11    12    1
    23    12     3    1
    24    24    18   ar
    25    10     5    1
    26    15    16    1
@<TRIPOS>MOLECULE
*****
 24 26 0 0 0
SMALL
GASTEIGER

@<TRIPOS>ATOM
      1 C          64.5232   86.0947   14.8950 C.3     1  UNL1        0.1154
      2 C          63.3018   85.6169   16.4147 C.3     1  UNL1        0.0335
      3 C          63.5561   84.9646   15.0881 C.3     1  UNL1        0.1377
      4 C          64.0126   84.5486   13.7212 C.3     1  UNL1        0.0613
      5 C          63.2744   83.2975   13.3467 C.3     1  UNL1        0.1290
      6 C          62.4650   82.0567   13.1118 C.3     1  UNL1        0.0305
      7 C          62.6135   81.2964   11.8274 C.3     1  UNL1        0.0025
      8 C          63.5713   81.7769   10.7778 C.3     1  UNL1        0.0002
      9 C          64.3807   83.0177   11.0127 C.3     1  UNL1        0.0025
     10 C          64.2322   83.7780   12.2971 C.3     1  UNL1        0.0305
     11 O          62.3616   82.9404   14.4822 O.3     1  UNL1       -0.2256
     12 O          62.5357   83.9708   15.5585 O.3     1  UNL1       -0.2251
     13 C          64.0508   87.3955   14.3161 C.2     1  UNL1        0.2252
     14 O          63.5205   87.4437   12.9139 O.2     1  UNL1       -0.2750
     15 N          64.1088   88.6479   15.1396 N.am    1  UNL1       -0.3004
     16 H          64.4569   88.6163   16.0600 H       1  UNL1        0.1497
     17 C          63.6364   89.9486   14.5607 C.3     1  UNL1        0.1164
     18 C          64.6073   90.8572   13.8666 C.ar    1  UNL1       -0.0017
     19 C          64.2496   91.4669   12.5436 C.ar    1  UNL1       -0.0026
     20 C          65.2205   92.3755   11.8495 C.ar    1  UNL1        0.0006
     21 C          66.5491   92.6744   12.4784 C.ar    1  UNL1        0.0114
     22 C          66.9067   92.0648   13.8014 C.ar    1  UNL1        0.0574
     23 CL         68.2353   92.3638   14.4303 Cl      1  UNL1       -0.0823
     24 C          65.9358   91.1562   14.4956 C.ar    1  UNL1        0.0088
@<TRIPOS>BOND
     1     2     3    1
     2     3     1    1
     3     1    13    1
     4    13    14    2
     5    13    15   am
     6    15    17    1
     7    17    18    1
     8    18    19   ar
     9    19    20   ar
    10    20    21   ar
    11    21    22   ar
    12    22    23    1
    13    22    24   ar
    14     3     4    1
    15     4     5    1
    16     5     6    1
    17     6     7    1
    18     7     8    1
    19     8     9    1
    20     9    10    1
    21     5    11    1
    22    11    12    1
    23    12     3    1
    24    24    18   ar
    25    10     5    1
    26    15    16    1
@<TRIPOS>MOLECULE
*****
 24 26 0 0 0
SMALL
GASTEIGER

@<TRIPOS>ATOM
      1 C          64.6275   86.2992   14.9586 C.3     1  UNL1        0.1154
      2 C          63.4243   86.0325   16.5432 C.3     1  UNL1        0.0335
      3 C          63.6140   85.2420   15.2826 C.3     1  UNL1        0.1377
      4 C          64.0155   84.6725   13.9543 C.3     1  UNL1        0.0613
      5 C          63.2104   83.4285   13.7208 C.3     1  UNL1        0.1290
      6 C          62.3383   82.2117   13.6267 C.3     1  UNL1        0.0305
      7 C          62.4183   81.3231   12.4209 C.3     1  UNL1        0.0025
      8 C          63.3704   81.6513   11.3092 C.3     1  UNL1        0.0002
      9 C          64.2425   82.8681   11.4033 C.3     1  UNL1        0.0025
     10 C          64.1625   83.7567   12.6091 C.3     1  UNL1        0.0305
     11 O          62.3114   83.2292   14.9048 O.3     1  UNL1       -0.2256
     12 O          62.5607   84.3500   15.8701 O.3     1  UNL1       -0.2251
     13 C          64.2012   87.5595   14.2656 C.2     1  UNL1        0.2252
     14 O          64.4909   88.8927   14.8887 O.2     1  UNL1       -0.2750
     15 N          63.4853   87.4863   12.9494 N.am    1  UNL1       -0.3004
     16 H          63.2952   86.6112   12.5404 H       1  UNL1        0.1497
     17 C          63.0592   88.7465   12.2565 C.3     1  UNL1        0.1164
     18 C          62.1002   88.6816   11.1049 C.ar    1  UNL1       -0.0017
     19 C          61.2180   89.8549   10.7965 C.ar    1  UNL1       -0.0026
     20 C          60.2591   89.7901    9.6449 C.ar    1  UNL1        0.0006
     21 C          60.1824   88.5519    8.8016 C.ar    1  UNL1        0.0114
     22 C          61.0645   87.3787    9.1100 C.ar    1  UNL1        0.0574
     23 CL         60.9878   86.1405    8.2667 Cl      1  UNL1       -0.0823
     24 C          62.0235   87.4435   10.2616 C.ar    1  UNL1        0.0088
@<TRIPOS>BOND
     1     2     3    1
     2     3     1    1
     3     1    13    1
     4    13    14    2
     5    13    15   am
     6    15    17    1
     7    17    18    1
     8    18    19   ar
     9    19    20   ar
    10    20    21   ar
    11    21    22   ar
    12    22    23    1
    13    22    24   ar
    14     3     4    1
    15     4     5    1
    16     5     6    1
    17     6     7    1
    18     7     8    1
    19     8     9    1
    20     9    10    1
    21     5    11    1
    22    11    12    1
    23    12     3    1
    24    24    18   ar
    25    10     5    1
    26    15    16    1
@<TRIPOS>MOLECULE
*****
 24 26 0 0 0
SMALL
GASTEIGER

@<TRIPOS>ATOM
      1 C          60.0570   87.6616   10.2335 C.3     1  UNL1        0.1154
      2 C          60.0989   87.4512    8.2376 C.3     1  UNL1        0.0335
      3 C          60.8599   86.7683    9.3350 C.3     1  UNL1        0.1377
      4 C          61.4530   86.2721   10.6203 C.3     1  UNL1        0.0613
      5 C          62.4635   85.2148   10.2868 C.3     1  UNL1        0.1290
      6 C          63.4375   84.1819    9.8025 C.3     1  UNL1        0.0305
      7 C          64.2703   83.4163   10.7875 C.3     1  UNL1        0.0025
      8 C          64.1292   83.6836   12.2567 C.3     1  UNL1        0.0002
      9 C          63.1552   84.7164   12.7410 C.3     1  UNL1        0.0025
     10 C          62.3223   85.4820   11.7561 C.3     1  UNL1        0.0305
     11 O          62.4948   85.0575    8.7954 O.3     1  UNL1       -0.2256
     12 O          61.5037   86.0177    8.2071 O.3     1  UNL1       -0.2251
     13 C          60.7086   88.8379   10.8983 C.2     1  UNL1        0.2252
     14 O          60.1191   89.4121   12.1523 O.2     1  UNL1       -0.2750
     15 N          61.9499   89.4398   10.3090 N.am    1  UNL1       -0.3004
     16 H          62.3368   89.0628    9.4859 H       1  UNL1        0.1497
     17 C          62.6014   90.6160   10.9738 C.3     1  UNL1        0.1164
     18 C          63.4389   90.4143   12.2018 C.ar    1  UNL1       -0.0017
     19 C          64.2349   91.5555   12.7625 C.ar    1  UNL1       -0.0026
     20 C          65.0724   91.3539   13.9904 C.ar    1  UNL1        0.0006
     21 C          65.1140   90.0111   14.6577 C.ar    1  UNL1        0.0114
     22 C          64.3181   88.8701   14.0971 C.ar    1  UNL1        0.0574
     23 CL         64.3597   87.5273   14.7644 Cl      1  UNL1       -0.0823
     24 C          63.4805   89.0716   12.8691 C.ar    1  UNL1        0.0088
@<TRIPOS>BOND
     1     2     3    1
     2     3     1    1
     3     1    13    1
     4    13    14    2
     5    13    15   am
     6    15    17    1
     7    17    18    1
     8    18    19   ar
     9    19    20   ar
    10    20    21   ar
    11    21    22   ar
    12    22    23    1
    13    22    24   ar
    14     3     4    1
    15     4     5    1
    16     5     6    1
    17     6     7    1
    18     7     8    1
    19     8     9    1
    20     9    10    1
    21     5    11    1
    22    11    12    1
    23    12     3    1
    24    24    18   ar
    25    10     5    1
    26    15    16    1
@<TRIPOS>MOLECULE
*****
 24 26 0 0 0
SMALL
GASTEIGER

@<TRIPOS>ATOM
      1 C          64.4522   84.9178   14.2647 C.3     1  UNL1        0.1154
      2 C          63.3684   84.0913   15.7385 C.3     1  UNL1        0.0335
      3 C          63.7042   85.5177   15.4182 C.3     1  UNL1        0.1377
      4 C          64.1964   86.8187   14.8567 C.3     1  UNL1        0.0613
      5 C          63.6823   87.9246   15.7302 C.3     1  UNL1        0.1290
      6 C          63.0996   88.9189   16.6903 C.3     1  UNL1        0.0305
      7 C          63.3513   90.3848   16.4964 C.3     1  UNL1        0.0025
      8 C          64.1856   90.8565   15.3426 C.3     1  UNL1        0.0002
      9 C          64.7684   89.8622   14.3826 C.3     1  UNL1        0.0025
     10 C          64.5167   88.3962   14.5764 C.3     1  UNL1        0.0305
     11 O          62.8725   87.3070   16.8315 O.3     1  UNL1       -0.2256
     12 O          62.8860   85.8195   16.6387 O.3     1  UNL1       -0.2251
     13 C          63.7673   84.7291   12.9435 C.2     1  UNL1        0.2252
     14 O          64.1850   83.6110   12.0352 O.2     1  UNL1       -0.2750
     15 N          62.6647   85.6587   12.5308 N.am    1  UNL1       -0.3004
     16 H          62.3906   86.3926   13.1270 H       1  UNL1        0.1497
     17 C          61.9799   85.4700   11.2096 C.3     1  UNL1        0.1164
     18 C          61.4956   86.6622   10.4389 C.ar    1  UNL1       -0.0017
     19 C          62.0237   88.0287   10.7612 C.ar    1  UNL1       -0.0026
     20 C          61.5394   89.2209    9.9904 C.ar    1  UNL1        0.0006
     21 C          60.5270   89.0467    8.8974 C.ar    1  UNL1        0.0114
     22 C          59.9990   87.6803    8.5751 C.ar    1  UNL1        0.0574
     23 CL         58.9867   87.5060    7.4820 Cl      1  UNL1       -0.0823
     24 C          60.4833   86.4879    9.3458 C.ar    1  UNL1        0.0088
@<TRIPOS>BOND
     1     2     3    1
     2     3     1    1
     3     1    13    1
     4    13    14    2
     5    13    15   am
     6    15    17    1
     7    17    18    1
     8    18    19   ar
     9    19    20   ar
    10    20    21   ar
    11    21    22   ar
    12    22    23    1
    13    22    24   ar
    14     3     4    1
    15     4     5    1
    16     5     6    1
    17     6     7    1
    18     7     8    1
    19     8     9    1
    20     9    10    1
    21     5    11    1
    22    11    12    1
    23    12     3    1
    24    24    18   ar
    25    10     5    1
    26    15    16    1
@<TRIPOS>MOLECULE
*****
 24 26 0 0 0
SMALL
GASTEIGER

@<TRIPOS>ATOM
      1 C          62.5346   84.0076   14.2654 C.3     1  UNL1        0.1154
      2 C          63.8555   82.5053   14.0975 C.3     1  UNL1        0.0335
      3 C          63.2816   83.4548   13.0880 C.3     1  UNL1        0.1377
      4 C          62.5515   84.5198   12.3247 C.3     1  UNL1        0.0613
      5 C          62.9673   84.4268   10.8864 C.3     1  UNL1        0.1290
      6 C          63.4751   84.2140    9.4911 C.3     1  UNL1        0.0305
      7 C          62.9892   85.0898    8.3745 C.3     1  UNL1        0.0025
      8 C          61.9954   86.1783    8.6531 C.3     1  UNL1        0.0002
      9 C          61.4876   86.3910   10.0484 C.3     1  UNL1        0.0025
     10 C          61.9735   85.5153   11.1650 C.3     1  UNL1        0.0305
     11 O          63.9543   83.3042   10.7609 O.3     1  UNL1       -0.2256
     12 O          64.1485   82.7035   12.1216 O.3     1  UNL1       -0.2251
     13 C          63.0048   85.2693   14.9267 C.2     1  UNL1        0.2252
     14 O          62.5305   85.6141   16.3073 O.2     1  UNL1       -0.2750
     15 N          63.9493   86.1861   14.2073 N.am    1  UNL1       -0.3004
     16 H          64.2606   85.9597   13.3012 H       1  UNL1        0.1497
     17 C          64.4194   87.4477   14.8686 C.3     1  UNL1        0.1164
     18 C          64.3198   88.7568   14.1431 C.ar    1  UNL1       -0.0017
     19 C          63.4995   88.8601   12.8915 C.ar    1  UNL1       -0.0026
     20 C          63.3999   90.1692   12.1660 C.ar    1  UNL1        0.0006
     21 C          64.1206   91.3749   12.6921 C.ar    1  UNL1        0.0114
     22 C          64.9408   91.2716   13.9437 C.ar    1  UNL1        0.0574
     23 CL         65.6614   92.4774   14.4698 Cl      1  UNL1       -0.0823
     24 C          65.0404   89.9625   14.6692 C.ar    1  UNL1        0.0088
@<TRIPOS>BOND
     1     2     3    1
     2     3     1    1
     3     1    13    1
     4    13    14    2
     5    13    15   am
     6    15    17    1
     7    17    18    1
     8    18    19   ar
     9    19    20   ar
    10    20    21   ar
    11    21    22   ar
    12    22    23    1
    13    22    24   ar
    14     3     4    1
    15     4     5    1
    16     5     6    1
    17     6     7    1
    18     7     8    1
    19     8     9    1
    20     9    10    1
    21     5    11    1
    22    11    12    1
    23    12     3    1
    24    24    18   ar
    25    10     5    1
    26    15    16    1
@<TRIPOS>MOLECULE
*****
 24 26 0 0 0
SMALL
GASTEIGER

@<TRIPOS>ATOM
      1 C          62.9451   82.8355   12.6548 C.3     1  UNL1        0.1154
      2 C          64.1587   81.9330   11.3348 C.3     1  UNL1        0.0335
      3 C          63.3469   83.1918   11.2543 C.3     1  UNL1        0.1377
      4 C          62.4510   84.3760   11.4665 C.3     1  UNL1        0.0613
      5 C          62.4688   85.2012   10.2139 C.3     1  UNL1        0.1290
      6 C          62.5856   85.9196    8.9023 C.3     1  UNL1        0.0305
      7 C          61.8294   87.1950    8.6759 C.3     1  UNL1        0.0025
      8 C          60.9563   87.7520    9.7610 C.3     1  UNL1        0.0002
      9 C          60.8395   87.0336   11.0726 C.3     1  UNL1        0.0025
     10 C          61.5958   85.7582   11.2990 C.3     1  UNL1        0.0305
     11 O          63.3757   84.5268    9.2275 O.3     1  UNL1       -0.2256
     12 O          63.9184   83.2849    9.8705 O.3     1  UNL1       -0.2251
     13 C          63.5995   83.5180   13.8193 C.2     1  UNL1        0.2252
     14 O          63.6241   82.8508   15.1625 O.2     1  UNL1       -0.2750
     15 N          64.2293   84.8676   13.6405 N.am    1  UNL1       -0.3004
     16 H          64.2132   85.3055   12.7589 H       1  UNL1        0.1497
     17 C          64.8837   85.5500   14.8050 C.3     1  UNL1        0.1164
     18 C          64.2654   86.7820   15.3965 C.ar    1  UNL1       -0.0017
     19 C          63.5025   86.6937   16.6850 C.ar    1  UNL1       -0.0026
     20 C          62.8842   87.9257   17.2765 C.ar    1  UNL1        0.0006
     21 C          63.0289   89.2461   16.5795 C.ar    1  UNL1        0.0114
     22 C          63.7918   89.3344   15.2911 C.ar    1  UNL1        0.0574
     23 CL         63.9365   90.6547   14.5942 Cl      1  UNL1       -0.0823
     24 C          64.4101   88.1024   14.6996 C.ar    1  UNL1        0.0088
@<TRIPOS>BOND
     1     2     3    1
     2     3     1    1
     3     1    13    1
     4    13    14    2
     5    13    15   am
     6    15    17    1
     7    17    18    1
     8    18    19   ar
     9    19    20   ar
    10    20    21   ar
    11    21    22   ar
    12    22    23    1
    13    22    24   ar
    14     3     4    1
    15     4     5    1
    16     5     6    1
    17     6     7    1
    18     7     8    1
    19     8     9    1
    20     9    10    1
    21     5    11    1
    22    11    12    1
    23    12     3    1
    24    24    18   ar
    25    10     5    1
    26    15    16    1
@<TRIPOS>MOLECULE
*****
 24 26 0 0 0
SMALL
GASTEIGER

@<TRIPOS>ATOM
      1 C          60.9511   86.9712   10.9758 C.3     1  UNL1        0.1154
      2 C          60.3214   87.6921    9.2113 C.3     1  UNL1        0.0335
      3 C          61.2626   88.2417   10.2419 C.3     1  UNL1        0.1377
      4 C          62.1387   88.5257   11.4259 C.3     1  UNL1        0.0613
      5 C          62.7949   89.8569   11.2083 C.3     1  UNL1        0.1290
      6 C          63.3735   91.1948   10.8544 C.3     1  UNL1        0.0305
      7 C          64.3319   91.8688   11.7909 C.3     1  UNL1        0.0025
      8 C          64.7118   91.2050   13.0813 C.3     1  UNL1        0.0002
      9 C          64.1332   89.8672   13.4352 C.3     1  UNL1        0.0025
     10 C          63.1747   89.1931   12.4987 C.3     1  UNL1        0.0305
     11 O          62.3244   90.3956    9.8898 O.3     1  UNL1       -0.2256
     12 O          61.3774   89.3974    9.2925 O.3     1  UNL1       -0.2251
     13 C          62.0236   85.9433   11.1845 C.2     1  UNL1        0.2252
     14 O          62.7453   85.3624   10.0049 O.2     1  UNL1       -0.2750
     15 N          62.3743   85.4965   12.5728 N.am    1  UNL1       -0.3004
     16 H          61.9006   85.8779   13.3471 H       1  UNL1        0.1497
     17 C          63.4467   84.4687   12.7814 C.3     1  UNL1        0.1164
     18 C          63.1024   83.0091   12.7529 C.ar    1  UNL1       -0.0017
     19 C          62.6456   82.3216   14.0054 C.ar    1  UNL1       -0.0026
     20 C          62.3013   80.8620   13.9769 C.ar    1  UNL1        0.0006
     21 C          62.4136   80.0898   12.6959 C.ar    1  UNL1        0.0114
     22 C          62.8704   80.7772   11.4434 C.ar    1  UNL1        0.0574
     23 CL         62.9827   80.0050   10.1624 Cl      1  UNL1       -0.0823
     24 C          63.2148   82.2369   11.4719 C.ar    1  UNL1        0.0088
@<TRIPOS>BOND
     1     2     3    1
     2     3     1    1
     3     1    13    1
     4    13    14    2
     5    13    15   am
     6    15    17    1
     7    17    18    1
     8    18    19   ar
     9    19    20   ar
    10    20    21   ar
    11    21    22   ar
    12    22    23    1
    13    22    24   ar
    14     3     4    1
    15     4     5    1
    16     5     6    1
    17     6     7    1
    18     7     8    1
    19     8     9    1
    20     9    10    1
    21     5    11    1
    22    11    12    1
    23    12     3    1
    24    24    18   ar
    25    10     5    1
    26    15    16    1
@<TRIPOS>MOLECULE
*****
 24 26 0 0 0
SMALL
GASTEIGER

@<TRIPOS>ATOM
      1 C          64.7548   88.9171   14.5296 C.3     1  UNL1        0.1154
      2 C          64.6116   90.8870   14.8882 C.3     1  UNL1        0.0335
      3 C          64.0078   90.0131   13.8291 C.3     1  UNL1        0.1377
      4 C          63.5602   88.9100   12.9165 C.3     1  UNL1        0.0613
      5 C          62.6628   89.5070   11.8732 C.3     1  UNL1        0.1290
      6 C          61.7890   90.2422   10.9006 C.3     1  UNL1        0.0305
      7 C          61.1167   89.4978    9.7853 C.3     1  UNL1        0.0025
      8 C          61.3181   88.0183    9.6427 C.3     1  UNL1        0.0002
      9 C          62.1919   87.2831   10.6153 C.3     1  UNL1        0.0025
     10 C          62.8642   88.0274   11.7305 C.3     1  UNL1        0.0305
     11 O          62.5558   90.9790   12.1411 O.3     1  UNL1       -0.2256
     12 O          63.3871   91.2918   13.3499 O.3     1  UNL1       -0.2251
     13 C          64.0102   87.7421   15.0912 C.2     1  UNL1        0.2252
     14 O          63.0035   87.9451   16.1844 O.2     1  UNL1       -0.2750
     15 N          64.2724   86.3643   14.5593 N.am    1  UNL1       -0.3004
     16 H          64.9331   86.2311   13.8417 H       1  UNL1        0.1497
     17 C          63.5278   85.1894   15.1208 C.3     1  UNL1        0.1164
     18 C          63.2923   83.9754   14.2719 C.ar    1  UNL1       -0.0017
     19 C          64.1261   83.7437   13.0467 C.ar    1  UNL1       -0.0026
     20 C          63.8906   82.5297   12.1978 C.ar    1  UNL1        0.0006
     21 C          62.8213   81.5473   12.5741 C.ar    1  UNL1        0.0114
     22 C          61.9876   81.7789   13.7992 C.ar    1  UNL1        0.0574
     23 CL         60.9184   80.7966   14.1756 Cl      1  UNL1       -0.0823
     24 C          62.2231   82.9930   14.6482 C.ar    1  UNL1        0.0088
@<TRIPOS>BOND
     1     2     3    1
     2     3     1    1
     3     1    13    1
     4    13    14    2
     5    13    15   am
     6    15    17    1
     7    17    18    1
     8    18    19   ar
     9    19    20   ar
    10    20    21   ar
    11    21    22   ar
    12    22    23    1
    13    22    24   ar
    14     3     4    1
    15     4     5    1
    16     5     6    1
    17     6     7    1
    18     7     8    1
    19     8     9    1
    20     9    10    1
    21     5    11    1
    22    11    12    1
    23    12     3    1
    24    24    18   ar
    25    10     5    1
    26    15    16    1
