@<TRIPOS>MOLECULE
*****
 27 29 0 0 0
SMALL
GASTEIGER

@<TRIPOS>ATOM
      1 C          62.6421   89.1002   11.3551 C.ar    1  UNL1        0.1655
      2 N          63.7264   89.8043   12.1155 N.ar    1  UNL1       -0.2239
      3 C          63.8906   91.1743   11.5272 C.ar    1  UNL1        0.0899
      4 C          62.9076   91.3169   10.4031 C.ar    1  UNL1        0.0572
      5 S          62.1360   90.0350   10.2968 S.2     1  UNL1       -0.0508
      6 C          64.8664   92.2185   11.9829 C.ar    1  UNL1        0.0225
      7 C          65.3819   92.1995   13.3914 C.ar    1  UNL1        0.0223
      8 C          66.3576   93.2435   13.8471 C.ar    1  UNL1        0.1004
      9 N          66.8180   94.3068   12.8943 N.ar    1  UNL1       -0.2292
     10 C          66.3025   94.3257   11.4858 C.ar    1  UNL1        0.1318
     11 C          65.3267   93.2816   11.0301 C.ar    1  UNL1        0.0358
     12 N          66.7628   95.3889   10.5330 N.pl3   1  UNL1       -0.2897
     13 C          67.5184   95.0095    9.2940 C.3     1  UNL1        0.1136
     14 C          66.4674   96.8314   10.8192 C.3     1  UNL1        0.1136
     15 C          62.1558   86.6956   10.4999 C.2     1  UNL1        0.2320
     16 O          62.6534   87.0793    9.1379 O.2     1  UNL1       -0.2744
     17 N          62.1501   87.7060   11.6086 N.am    1  UNL1       -0.2639
     18 H          61.8235   87.4542   12.5025 H       1  UNL1        0.1567
     19 C          61.6638   85.3014   10.7533 C.3     1  UNL1        0.1118
     20 C          63.4880   83.0220   13.4416 C.ar    1  UNL1        0.1384
     21 C          64.4181   82.2379   12.5641 C.ar    1  UNL1        0.0369
     22 C          64.4300   82.4749   11.0830 C.ar    1  UNL1        0.0028
     23 C          63.5120   83.4960   10.4794 C.ar    1  UNL1       -0.0036
     24 C          62.5819   84.2802   11.3569 C.ar    1  UNL1       -0.0101
     25 C          62.5700   84.0432   12.8380 C.ar    1  UNL1        0.0331
     26 C          62.8715   83.8057   15.8407 C.3     1  UNL1        0.2525
     27 O          63.4761   82.7850   14.9227 O.3     1  UNL1       -0.4714
@<TRIPOS>BOND
     1    26    27    1
     2    27    20    1
     3    20    21   ar
     4    21    22   ar
     5    22    23   ar
     6    23    24   ar
     7    24    19    1
     8    19    15    1
     9    15    16    2
    10    15    17   am
    11    17     1    1
    12     1     2   ar
    13     2     3   ar
    14     3     6    1
    15     6     7   ar
    16     7     8   ar
    17     8     9   ar
    18     9    10   ar
    19    10    12    1
    20    12    13    1
    21    12    14    1
    22    10    11   ar
    23     3     4   ar
    24     4     5   ar
    25    24    25   ar
    26    25    20   ar
    27     5     1   ar
    28    11     6   ar
    29    17    18    1
@<TRIPOS>MOLECULE
*****
 27 29 0 0 0
SMALL
GASTEIGER

@<TRIPOS>ATOM
      1 C          64.0303   87.0656   15.0847 C.ar    1  UNL1        0.1655
      2 N          63.8362   85.9815   14.0664 N.ar    1  UNL1       -0.2239
      3 C          63.2099   84.8053   14.7551 C.ar    1  UNL1        0.0899
      4 C          63.0169   85.1625   16.1992 C.ar    1  UNL1        0.0572
      5 S          63.5240   86.5594   16.4028 S.2     1  UNL1       -0.0508
      6 C          62.8412   83.5010   14.1126 C.ar    1  UNL1        0.0225
      7 C          62.0007   82.5081   14.8594 C.ar    1  UNL1        0.0223
      8 C          61.6320   81.2038   14.2170 C.ar    1  UNL1        0.1004
      9 N          62.1039   80.8922   12.8276 N.ar    1  UNL1       -0.2292
     10 C          62.9445   81.8851   12.0808 C.ar    1  UNL1        0.1318
     11 C          63.3131   83.1894   12.7233 C.ar    1  UNL1        0.0358
     12 N          63.4164   81.5735   10.6915 N.pl3   1  UNL1       -0.2897
     13 C          64.2205   82.5840    9.9283 C.3     1  UNL1        0.1136
     14 C          63.0842   80.2516   10.0653 C.3     1  UNL1        0.1136
     15 C          63.8217   89.6552   15.0998 C.2     1  UNL1        0.2320
     16 O          62.4214   89.5394   15.6249 O.2     1  UNL1       -0.2744
     17 N          64.6262   88.4183   14.8297 N.am    1  UNL1       -0.2639
     18 H          65.5452   88.4943   14.4851 H       1  UNL1        0.1567
     19 C          64.4176   91.0079   14.8448 C.3     1  UNL1        0.1118
     20 C          65.8905   92.9655   11.7226 C.ar    1  UNL1        0.1384
     21 C          65.0149   92.4439   10.6221 C.ar    1  UNL1        0.0369
     22 C          63.9401   91.4436   10.9292 C.ar    1  UNL1        0.0028
     23 C          63.7410   90.9649   12.3367 C.ar    1  UNL1       -0.0036
     24 C          64.6166   91.4866   13.4372 C.ar    1  UNL1       -0.0101
     25 C          65.6914   92.4869   13.1301 C.ar    1  UNL1        0.0331
     26 C          66.6121   95.2700   10.7641 C.3     1  UNL1        0.2525
     27 O          66.9653   93.9658   11.4155 O.3     1  UNL1       -0.4714
@<TRIPOS>BOND
     1    26    27    1
     2    27    20    1
     3    20    21   ar
     4    21    22   ar
     5    22    23   ar
     6    23    24   ar
     7    24    19    1
     8    19    15    1
     9    15    16    2
    10    15    17   am
    11    17     1    1
    12     1     2   ar
    13     2     3   ar
    14     3     6    1
    15     6     7   ar
    16     7     8   ar
    17     8     9   ar
    18     9    10   ar
    19    10    12    1
    20    12    13    1
    21    12    14    1
    22    10    11   ar
    23     3     4   ar
    24     4     5   ar
    25    24    25   ar
    26    25    20   ar
    27     5     1   ar
    28    11     6   ar
    29    17    18    1
@<TRIPOS>MOLECULE
*****
 27 29 0 0 0
SMALL
GASTEIGER

@<TRIPOS>ATOM
      1 C          63.4189   87.3250   15.8094 C.ar    1  UNL1        0.1655
      2 N          64.1381   88.1846   14.8125 N.ar    1  UNL1       -0.2239
      3 C          64.1047   89.5991   15.3106 C.ar    1  UNL1        0.0899
      4 C          63.3649   89.6137   16.6155 C.ar    1  UNL1        0.0572
      5 S          62.9411   88.2082   16.9237 S.2     1  UNL1       -0.0508
      6 C          64.7057   90.7900   14.6245 C.ar    1  UNL1        0.0225
      7 C          65.5327   91.7675   15.4058 C.ar    1  UNL1        0.0223
      8 C          66.1336   92.9583   14.7197 C.ar    1  UNL1        0.1004
      9 N          65.9076   93.1716   13.2522 N.ar    1  UNL1       -0.2292
     10 C          65.0805   92.1941   12.4709 C.ar    1  UNL1        0.1318
     11 C          64.4796   91.0032   13.1571 C.ar    1  UNL1        0.0358
     12 N          64.8545   92.4074   11.0035 N.pl3   1  UNL1       -0.2897
     13 C          65.7313   93.3547   10.2394 C.3     1  UNL1        0.1136
     14 C          63.7516   91.6733   10.3001 C.3     1  UNL1        0.1136
     15 C          64.3244   84.9631   15.2167 C.2     1  UNL1        0.2320
     16 O          65.6405   85.5662   14.8238 O.2     1  UNL1       -0.2744
     17 N          63.2137   85.8425   15.7095 N.am    1  UNL1       -0.2639
     18 H          62.3499   85.4467   15.9674 H       1  UNL1        0.1567
     19 C          64.1192   83.4806   15.1168 C.3     1  UNL1        0.1118
     20 C          63.7009   82.9848   11.2015 C.ar    1  UNL1        0.1384
     21 C          63.0969   81.6127   11.1525 C.ar    1  UNL1        0.0369
     22 C          62.8336   80.8632   12.4248 C.ar    1  UNL1        0.0028
     23 C          63.1743   81.4858   13.7463 C.ar    1  UNL1       -0.0036
     24 C          63.7784   82.8579   13.7953 C.ar    1  UNL1       -0.0101
     25 C          64.0417   83.6074   12.5230 C.ar    1  UNL1        0.0331
     26 C          63.0629   84.8624    9.5230 C.3     1  UNL1        0.2525
     27 O          63.9642   83.7343    9.9292 O.3     1  UNL1       -0.4714
@<TRIPOS>BOND
     1    26    27    1
     2    27    20    1
     3    20    21   ar
     4    21    22   ar
     5    22    23   ar
     6    23    24   ar
     7    24    19    1
     8    19    15    1
     9    15    16    2
    10    15    17   am
    11    17     1    1
    12     1     2   ar
    13     2     3   ar
    14     3     6    1
    15     6     7   ar
    16     7     8   ar
    17     8     9   ar
    18     9    10   ar
    19    10    12    1
    20    12    13    1
    21    12    14    1
    22    10    11   ar
    23     3     4   ar
    24     4     5   ar
    25    24    25   ar
    26    25    20   ar
    27     5     1   ar
    28    11     6   ar
    29    17    18    1
@<TRIPOS>MOLECULE
*****
 27 29 0 0 0
SMALL
GASTEIGER

@<TRIPOS>ATOM
      1 C          62.5205   88.8693   12.1422 C.ar    1  UNL1        0.1655
      2 N          63.1592   87.5197   12.2864 N.ar    1  UNL1       -0.2239
      3 C          62.4546   86.5723   11.3612 C.ar    1  UNL1        0.0899
      4 C          61.3805   87.3364   10.6452 C.ar    1  UNL1        0.0572
      5 S          61.4212   88.7560   11.1280 S.2     1  UNL1       -0.0508
      6 C          62.7689   85.1164   11.1832 C.ar    1  UNL1        0.0225
      7 C          63.4004   84.6356    9.9104 C.ar    1  UNL1        0.0223
      8 C          63.7148   83.1799    9.7324 C.ar    1  UNL1        0.1004
      9 N          63.3976   82.2047   10.8273 N.ar    1  UNL1       -0.2292
     10 C          62.7661   82.6855   12.1001 C.ar    1  UNL1        0.1318
     11 C          62.4518   84.1414   12.2780 C.ar    1  UNL1        0.0358
     12 N          62.4489   81.7104   13.1949 N.pl3   1  UNL1       -0.2897
     13 C          62.5043   80.2359   12.9252 C.3     1  UNL1        0.1136
     14 C          62.0764   82.2099   14.5593 C.3     1  UNL1        0.1136
     15 C          63.5996   90.0107   14.2118 C.2     1  UNL1        0.2320
     16 O          63.8949   88.6632   14.8010 O.2     1  UNL1       -0.2744
     17 N          62.9124   90.1137   12.8824 N.am    1  UNL1       -0.2639
     18 H          62.7185   90.9981   12.4957 H       1  UNL1        0.1567
     19 C          63.9914   91.2551   14.9520 C.3     1  UNL1        0.1118
     20 C          67.6883   91.9727   13.6997 C.ar    1  UNL1        0.1384
     21 C          68.2705   92.6467   14.9065 C.ar    1  UNL1        0.0369
     22 C          67.4265   92.8569   16.1286 C.ar    1  UNL1        0.0028
     23 C          66.0001   92.3930   16.1437 C.ar    1  UNL1       -0.0036
     24 C          65.4178   91.7190   14.9369 C.ar    1  UNL1       -0.0101
     25 C          66.2619   91.5088   13.7148 C.ar    1  UNL1        0.0331
     26 C          67.9692   92.0529   11.1181 C.3     1  UNL1        0.2525
     27 O          68.5323   91.7625   12.4776 O.3     1  UNL1       -0.4714
@<TRIPOS>BOND
     1    26    27    1
     2    27    20    1
     3    20    21   ar
     4    21    22   ar
     5    22    23   ar
     6    23    24   ar
     7    24    19    1
     8    19    15    1
     9    15    16    2
    10    15    17   am
    11    17     1    1
    12     1     2   ar
    13     2     3   ar
    14     3     6    1
    15     6     7   ar
    16     7     8   ar
    17     8     9   ar
    18     9    10   ar
    19    10    12    1
    20    12    13    1
    21    12    14    1
    22    10    11   ar
    23     3     4   ar
    24     4     5   ar
    25    24    25   ar
    26    25    20   ar
    27     5     1   ar
    28    11     6   ar
    29    17    18    1
@<TRIPOS>MOLECULE
*****
 27 29 0 0 0
SMALL
GASTEIGER

@<TRIPOS>ATOM
      1 C          62.6091   89.0237   11.3212 C.ar    1  UNL1        0.1655
      2 N          63.6952   89.7397   12.0681 N.ar    1  UNL1       -0.2239
      3 C          63.8383   91.1107   11.4767 C.ar    1  UNL1        0.0899
      4 C          62.8406   91.2421   10.3642 C.ar    1  UNL1        0.0572
      5 S          62.0810   89.9523   10.2682 S.2     1  UNL1       -0.0508
      6 C          64.8086   92.1652   11.9199 C.ar    1  UNL1        0.0225
      7 C          65.2310   93.2440   10.9670 C.ar    1  UNL1        0.0223
      8 C          66.2013   94.2984   11.4101 C.ar    1  UNL1        0.1004
      9 N          66.7494   94.2743   12.8063 N.ar    1  UNL1       -0.2292
     10 C          66.3270   93.1956   13.7591 C.ar    1  UNL1        0.1318
     11 C          65.3567   92.1410   13.3160 C.ar    1  UNL1        0.0358
     12 N          66.8751   93.1714   15.1552 N.pl3   1  UNL1       -0.2897
     13 C          68.2412   93.7244   15.4344 C.3     1  UNL1        0.1136
     14 C          66.0570   92.5941   16.2721 C.3     1  UNL1        0.1136
     15 C          62.1692   86.6043   10.4828 C.2     1  UNL1        0.2320
     16 O          62.6784   86.9827    9.1236 O.2     1  UNL1       -0.2744
     17 N          62.1345   87.6249   11.5816 N.am    1  UNL1       -0.2639
     18 H          61.8003   87.3765   12.4737 H       1  UNL1        0.1567
     19 C          61.6946   85.2054   10.7432 C.3     1  UNL1        0.1118
     20 C          63.5794   83.5696   13.8289 C.ar    1  UNL1        0.1384
     21 C          64.2255   82.3863   13.1715 C.ar    1  UNL1        0.0369
     22 C          64.0279   82.1426   11.7047 C.ar    1  UNL1        0.0028
     23 C          63.1843   83.0823   10.8953 C.ar    1  UNL1       -0.0036
     24 C          62.5382   84.2657   11.5527 C.ar    1  UNL1       -0.0101
     25 C          62.7358   84.5093   13.0195 C.ar    1  UNL1        0.0331
     26 C          63.8166   85.2165   15.8243 C.3     1  UNL1        0.2525
     27 O          63.7770   83.8133   15.2958 O.3     1  UNL1       -0.4714
@<TRIPOS>BOND
     1    26    27    1
     2    27    20    1
     3    20    21   ar
     4    21    22   ar
     5    22    23   ar
     6    23    24   ar
     7    24    19    1
     8    19    15    1
     9    15    16    2
    10    15    17   am
    11    17     1    1
    12     1     2   ar
    13     2     3   ar
    14     3     6    1
    15     6     7   ar
    16     7     8   ar
    17     8     9   ar
    18     9    10   ar
    19    10    12    1
    20    12    13    1
    21    12    14    1
    22    10    11   ar
    23     3     4   ar
    24     4     5   ar
    25    24    25   ar
    26    25    20   ar
    27     5     1   ar
    28    11     6   ar
    29    17    18    1
@<TRIPOS>MOLECULE
*****
 27 29 0 0 0
SMALL
GASTEIGER

@<TRIPOS>ATOM
      1 C          64.0211   87.0558   15.1322 C.ar    1  UNL1        0.1655
      2 N          63.8394   85.9720   14.1113 N.ar    1  UNL1       -0.2239
      3 C          63.1870   84.8028   14.7875 C.ar    1  UNL1        0.0899
      4 C          62.9654   85.1640   16.2265 C.ar    1  UNL1        0.0572
      5 S          63.4810   86.5564   16.4395 S.2     1  UNL1       -0.0508
      6 C          62.8204   83.5009   14.1388 C.ar    1  UNL1        0.0225
      7 C          61.9773   82.5053   14.8790 C.ar    1  UNL1        0.0223
      8 C          61.6108   81.2035   14.2304 C.ar    1  UNL1        0.1004
      9 N          62.0873   80.8972   12.8413 N.ar    1  UNL1       -0.2292
     10 C          62.9303   81.8929   12.1011 C.ar    1  UNL1        0.1318
     11 C          63.2969   83.1948   12.7499 C.ar    1  UNL1        0.0358
     12 N          63.4068   81.5867   10.7122 N.pl3   1  UNL1       -0.2897
     13 C          63.0792   80.2660   10.0809 C.3     1  UNL1        0.1136
     14 C          64.2108   82.6013    9.9544 C.3     1  UNL1        0.1136
     15 C          63.8383   89.6474   15.1444 C.2     1  UNL1        0.2320
     16 O          62.4275   89.5456   15.6437 O.2     1  UNL1       -0.2744
     17 N          64.6351   88.4024   14.8887 N.am    1  UNL1       -0.2639
     18 H          65.5610   88.4693   14.5610 H       1  UNL1        0.1567
     19 C          64.4523   90.9941   14.9009 C.3     1  UNL1        0.1118
     20 C          63.9447   91.5945   11.0109 C.ar    1  UNL1        0.1384
     21 C          65.1573   92.4172   10.6905 C.ar    1  UNL1        0.0369
     22 C          66.1349   92.7656   11.7735 C.ar    1  UNL1        0.0028
     23 C          65.9000   92.2912   13.1769 C.ar    1  UNL1       -0.0036
     24 C          64.6874   91.4685   13.4974 C.ar    1  UNL1       -0.0101
     25 C          63.7097   91.1201   12.4143 C.ar    1  UNL1        0.0331
     26 C          62.1374   90.0014   10.0384 C.3     1  UNL1        0.2525
     27 O          62.9671   91.2462    9.9279 O.3     1  UNL1       -0.4714
@<TRIPOS>BOND
     1    26    27    1
     2    27    20    1
     3    20    21   ar
     4    21    22   ar
     5    22    23   ar
     6    23    24   ar
     7    24    19    1
     8    19    15    1
     9    15    16    2
    10    15    17   am
    11    17     1    1
    12     1     2   ar
    13     2     3   ar
    14     3     6    1
    15     6     7   ar
    16     7     8   ar
    17     8     9   ar
    18     9    10   ar
    19    10    12    1
    20    12    13    1
    21    12    14    1
    22    10    11   ar
    23     3     4   ar
    24     4     5   ar
    25    24    25   ar
    26    25    20   ar
    27     5     1   ar
    28    11     6   ar
    29    17    18    1
@<TRIPOS>MOLECULE
*****
 27 29 0 0 0
SMALL
GASTEIGER

@<TRIPOS>ATOM
      1 C          64.0156   87.3539   14.8375 C.ar    1  UNL1        0.1655
      2 N          63.7000   86.2612   13.8596 N.ar    1  UNL1       -0.2239
      3 C          63.3338   85.0331   14.6391 C.ar    1  UNL1        0.0899
      4 C          63.4231   85.3667   16.0988 C.ar    1  UNL1        0.0572
      5 S          63.8445   86.8011   16.2214 S.2     1  UNL1       -0.0508
      6 C          62.9462   83.7045   14.0605 C.ar    1  UNL1        0.0225
      7 C          62.1191   82.7477   14.8670 C.ar    1  UNL1        0.0223
      8 C          61.7316   81.4192   14.2885 C.ar    1  UNL1        0.1004
      9 N          62.1712   81.0474   12.9032 N.ar    1  UNL1       -0.2292
     10 C          62.9983   82.0041   12.0968 C.ar    1  UNL1        0.1318
     11 C          63.3858   83.3327   12.6754 C.ar    1  UNL1        0.0358
     12 N          63.4379   81.6324   10.7117 N.pl3   1  UNL1       -0.2897
     13 C          63.0535   80.3023   10.1345 C.3     1  UNL1        0.1136
     14 C          64.2620   82.5907    9.9038 C.3     1  UNL1        0.1136
     15 C          63.5905   89.9151   14.9359 C.2     1  UNL1        0.2320
     16 O          62.3372   89.6767   15.7249 O.2     1  UNL1       -0.2744
     17 N          64.4297   88.7536   14.4922 N.am    1  UNL1       -0.2639
     18 H          65.2522   88.9100   13.9743 H       1  UNL1        0.1567
     19 C          64.0045   91.3148   14.5905 C.3     1  UNL1        0.1118
     20 C          67.7910   91.9803   13.6057 C.ar    1  UNL1        0.1384
     21 C          68.3286   92.5224   14.8968 C.ar    1  UNL1        0.0369
     22 C          67.4249   92.6620   16.0858 C.ar    1  UNL1        0.0028
     23 C          65.9836   92.2595   15.9838 C.ar    1  UNL1       -0.0036
     24 C          65.4460   91.7173   14.6927 C.ar    1  UNL1       -0.0101
     25 C          66.3497   91.5777   13.5036 C.ar    1  UNL1        0.0331
     26 C          68.1360   91.9701   11.0307 C.3     1  UNL1        0.2525
     27 O          68.6947   91.8407   12.4166 O.3     1  UNL1       -0.4714
@<TRIPOS>BOND
     1    26    27    1
     2    27    20    1
     3    20    21   ar
     4    21    22   ar
     5    22    23   ar
     6    23    24   ar
     7    24    19    1
     8    19    15    1
     9    15    16    2
    10    15    17   am
    11    17     1    1
    12     1     2   ar
    13     2     3   ar
    14     3     6    1
    15     6     7   ar
    16     7     8   ar
    17     8     9   ar
    18     9    10   ar
    19    10    12    1
    20    12    13    1
    21    12    14    1
    22    10    11   ar
    23     3     4   ar
    24     4     5   ar
    25    24    25   ar
    26    25    20   ar
    27     5     1   ar
    28    11     6   ar
    29    17    18    1
@<TRIPOS>MOLECULE
*****
 27 29 0 0 0
SMALL
GASTEIGER

@<TRIPOS>ATOM
      1 C          63.3729   87.0669   15.6991 C.ar    1  UNL1        0.1655
      2 N          64.1146   87.8567   14.6618 N.ar    1  UNL1       -0.2239
      3 C          64.1426   89.2901   15.1030 C.ar    1  UNL1        0.0899
      4 C          63.4182   89.3861   16.4130 C.ar    1  UNL1        0.0572
      5 S          62.9425   88.0121   16.7814 S.2     1  UNL1       -0.0508
      6 C          64.7826   90.4278   14.3640 C.ar    1  UNL1        0.0225
      7 C          64.1308   90.9834   13.1325 C.ar    1  UNL1        0.0223
      8 C          64.7708   92.1210   12.3935 C.ar    1  UNL1        0.1004
      9 N          66.0627   92.7031   12.8859 N.ar    1  UNL1       -0.2292
     10 C          66.7144   92.1474   14.1174 C.ar    1  UNL1        0.1318
     11 C          66.0744   91.0098   14.8564 C.ar    1  UNL1        0.0358
     12 N          68.0062   92.7295   14.6098 N.pl3   1  UNL1       -0.2897
     13 C          67.9975   93.7573   15.7023 C.3     1  UNL1        0.1136
     14 C          69.3066   92.2837   14.0097 C.3     1  UNL1        0.1136
     15 C          64.1645   84.6522   15.1577 C.2     1  UNL1        0.2320
     16 O          65.4856   85.1896   14.6928 O.2     1  UNL1       -0.2744
     17 N          63.1082   85.5909   15.6608 N.am    1  UNL1       -0.2639
     18 H          62.2411   85.2383   15.9660 H       1  UNL1        0.1567
     19 C          63.8998   83.1763   15.1194 C.3     1  UNL1        0.1118
     20 C          63.7560   82.4734   11.2161 C.ar    1  UNL1        0.1384
     21 C          63.0678   81.1408   11.1933 C.ar    1  UNL1        0.0369
     22 C          62.6569   80.4867   12.4791 C.ar    1  UNL1        0.0028
     23 C          62.9342   81.1652   13.7878 C.ar    1  UNL1       -0.0036
     24 C          63.6224   82.4978   13.8107 C.ar    1  UNL1       -0.0101
     25 C          64.0333   83.1519   12.5248 C.ar    1  UNL1        0.0331
     26 C          63.4042   84.3114    9.4140 C.3     1  UNL1        0.2525
     27 O          64.1668   83.1275    9.9303 O.3     1  UNL1       -0.4714
@<TRIPOS>BOND
     1    26    27    1
     2    27    20    1
     3    20    21   ar
     4    21    22   ar
     5    22    23   ar
     6    23    24   ar
     7    24    19    1
     8    19    15    1
     9    15    16    2
    10    15    17   am
    11    17     1    1
    12     1     2   ar
    13     2     3   ar
    14     3     6    1
    15     6     7   ar
    16     7     8   ar
    17     8     9   ar
    18     9    10   ar
    19    10    12    1
    20    12    13    1
    21    12    14    1
    22    10    11   ar
    23     3     4   ar
    24     4     5   ar
    25    24    25   ar
    26    25    20   ar
    27     5     1   ar
    28    11     6   ar
    29    17    18    1
@<TRIPOS>MOLECULE
*****
 27 29 0 0 0
SMALL
GASTEIGER

@<TRIPOS>ATOM
      1 C          62.3018   87.9924   11.7447 C.ar    1  UNL1        0.1655
      2 N          63.0463   86.7152   11.9986 N.ar    1  UNL1       -0.2239
      3 C          62.3682   85.6221   11.2270 C.ar    1  UNL1        0.0899
      4 C          61.2046   86.2238   10.4961 C.ar    1  UNL1        0.0572
      5 S          61.1636   87.6887   10.8160 S.2     1  UNL1       -0.0508
      6 C          62.7812   84.1805   11.1923 C.ar    1  UNL1        0.0225
      7 C          63.7210   83.6949   10.1289 C.ar    1  UNL1        0.0223
      8 C          64.1340   82.2534   10.0942 C.ar    1  UNL1        0.1004
      9 N          63.6071   81.2972   11.1230 N.ar    1  UNL1       -0.2292
     10 C          62.6672   81.7828   12.1864 C.ar    1  UNL1        0.1318
     11 C          62.2543   83.2244   12.2211 C.ar    1  UNL1        0.0358
     12 N          62.1403   80.8268   13.2151 N.pl3   1  UNL1       -0.2897
     13 C          62.4789   79.3681   13.1266 C.3     1  UNL1        0.1136
     14 C          61.2748   81.3293   14.3324 C.3     1  UNL1        0.1136
     15 C          63.4418   89.4347   13.5805 C.2     1  UNL1        0.2320
     16 O          63.9119   88.1874   14.2685 O.2     1  UNL1       -0.2744
     17 N          62.6367   89.3371   12.3185 N.am    1  UNL1       -0.2639
     18 H          62.3282   90.1557   11.8670 H       1  UNL1        0.1567
     19 C          63.7767   90.7794   14.1544 C.3     1  UNL1        0.1118
     20 C          67.2599   92.6414   13.7655 C.ar    1  UNL1        0.1384
     21 C          67.1243   93.2108   12.3845 C.ar    1  UNL1        0.0369
     22 C          65.8729   92.9697   11.5934 C.ar    1  UNL1        0.0028
     23 C          64.7570   92.1593   12.1833 C.ar    1  UNL1       -0.0036
     24 C          64.8926   91.5899   13.5644 C.ar    1  UNL1       -0.0101
     25 C          66.1440   91.8310   14.3555 C.ar    1  UNL1        0.0331
     26 C          68.4515   93.6652   15.8348 C.3     1  UNL1        0.2525
     27 O          68.5113   92.8824   14.5567 O.3     1  UNL1       -0.4714
@<TRIPOS>BOND
     1    26    27    1
     2    27    20    1
     3    20    21   ar
     4    21    22   ar
     5    22    23   ar
     6    23    24   ar
     7    24    19    1
     8    19    15    1
     9    15    16    2
    10    15    17   am
    11    17     1    1
    12     1     2   ar
    13     2     3   ar
    14     3     6    1
    15     6     7   ar
    16     7     8   ar
    17     8     9   ar
    18     9    10   ar
    19    10    12    1
    20    12    13    1
    21    12    14    1
    22    10    11   ar
    23     3     4   ar
    24     4     5   ar
    25    24    25   ar
    26    25    20   ar
    27     5     1   ar
    28    11     6   ar
    29    17    18    1
