@<TRIPOS>MOLECULE
*****
 34 36 0 0 0
SMALL
GASTEIGER

@<TRIPOS>ATOM
      1 C          63.5515   90.4909   12.2445 C.2     1  UNL1        0.2271
      2 O          62.9086   90.6298   10.8964 O.2     1  UNL1       -0.2748
      3 N          63.6387   89.1438   12.8986 N.am    1  UNL1       -0.2760
      4 C          63.0830   87.9357   12.2046 C.3     1  UNL1        0.1149
      5 C          63.1702   86.5887   12.8587 C.3     1  UNL1        0.1152
      6 N          63.8131   86.4497   14.2068 N.am    1  UNL1       -0.2726
      7 C          63.9002   85.1026   14.8609 C.2     1  UNL1        0.2491
      8 O          64.5431   84.9637   16.2090 O.2     1  UNL1       -0.2699
      9 C          64.3688   87.6578   14.9008 C.3     1  UNL1        0.1152
     10 C          64.2815   89.0048   14.2467 C.3     1  UNL1        0.1149
     11 C          63.3445   83.8945   14.1670 C.ar    1  UNL1        0.0536
     12 C          62.3080   83.0497   14.8465 C.ar    1  UNL1        0.0045
     13 C          61.7523   81.8416   14.1525 C.ar    1  UNL1        0.0002
     14 C          62.2332   81.4783   12.7789 C.ar    1  UNL1        0.0011
     15 C          63.2697   82.3231   12.0993 C.ar    1  UNL1        0.0141
     16 C          63.8254   83.5312   12.7933 C.ar    1  UNL1        0.0056
     17 C          63.7505   81.9599   10.7257 C.2     1  UNL1        0.0729
     18 O          64.7872   82.8046   10.0462 O.co2   1  UNL1       -0.5446
     19 O          63.1947   80.7518   10.0316 O.co2   1  UNL1       -0.5446
     20 C          64.1072   91.6990   12.9385 C.3     1  UNL1        0.1010
     21 N          66.3285   92.5241   14.0038 N.3     1  UNL1       -0.3215
     22 C          65.5637   92.0340   12.8101 C.3     1  UNL1        0.0644
     23 H          65.7067   92.5687   14.8111 H       1  UNL1        0.1188
     24 H          66.7016   93.4535   13.8103 H       1  UNL1        0.1188
     25 C          66.2553   91.8788   11.4882 C.3     1  UNL1        0.0447
     26 C          66.5604   93.0881   10.6549 C.ar    1  UNL1        0.0090
     27 C          65.8100   94.3664   10.8853 C.ar    1  UNL1        0.0300
     28 C          66.1151   95.5757   10.0520 C.ar    1  UNL1        0.1672
     29 F          65.3648   96.8540   10.2824 F       1  UNL1       -0.2018
     30 C          67.1704   95.5068    8.9883 C.ar    1  UNL1        0.1696
     31 F          67.4755   96.7161    8.1549 F       1  UNL1       -0.2017
     32 C          67.9207   94.2286    8.7578 C.ar    1  UNL1        0.0612
     33 C          67.6157   93.0192    9.5912 C.ar    1  UNL1        0.1386
     34 F          68.3660   91.7410    9.3608 F       1  UNL1       -0.2044
@<TRIPOS>UNITY_ATOM_ATTR
18 1
charge -1
@<TRIPOS>BOND
     1    22    21    1
     2    22    20    1
     3    20     1    1
     4     1     2    2
     5     1     3   am
     6     3     4    1
     7     4     5    1
     8     5     6    1
     9     6     7   am
    10     7     8    2
    11     7    11    1
    12    11    12   ar
    13    12    13   ar
    14    13    14   ar
    15    14    15   ar
    16    15    17    1
    17    17    18   ar
    18    17    19   ar
    19    15    16   ar
    20     6     9    1
    21     9    10    1
    22    22    25    1
    23    25    26    1
    24    26    27   ar
    25    27    28   ar
    26    28    29    1
    27    28    30   ar
    28    30    31    1
    29    30    32   ar
    30    32    33   ar
    31    33    34    1
    32    10     3    1
    33    33    26   ar
    34    16    11   ar
    35    21    23    1
    36    21    24    1
@<TRIPOS>MOLECULE
*****
 34 36 0 0 0
SMALL
GASTEIGER

@<TRIPOS>ATOM
      1 C          63.4622   90.5545   12.5492 C.2     1  UNL1        0.2271
      2 O          62.8351   90.8562   11.2204 O.2     1  UNL1       -0.2748
      3 N          63.6299   89.1317   12.9936 N.am    1  UNL1       -0.2760
      4 C          63.1707   88.0106   12.1092 C.3     1  UNL1        0.1149
      5 C          63.3385   86.5878   12.5536 C.3     1  UNL1        0.1152
      6 N          63.9655   86.2861   13.8824 N.am    1  UNL1       -0.2726
      7 C          64.1333   84.8633   14.3268 C.2     1  UNL1        0.2491
      8 O          64.7603   84.5616   15.6556 O.2     1  UNL1       -0.2699
      9 C          64.4248   87.4072   14.7668 C.3     1  UNL1        0.1152
     10 C          64.2570   88.8300   14.3224 C.3     1  UNL1        0.1149
     11 C          63.6740   83.7422   13.4424 C.ar    1  UNL1        0.0536
     12 C          64.0640   83.7215   11.9941 C.ar    1  UNL1        0.0045
     13 C          63.6047   82.6004   11.1096 C.ar    1  UNL1        0.0002
     14 C          62.7555   81.5000   11.6735 C.ar    1  UNL1        0.0011
     15 C          62.3655   81.5207   13.1218 C.ar    1  UNL1        0.0141
     16 C          62.8248   82.6417   14.0062 C.ar    1  UNL1        0.0056
     17 C          61.5164   80.4203   13.6856 C.2     1  UNL1        0.0729
     18 O          60.2172   80.7465   14.3608 O.co2   1  UNL1       -0.5446
     19 O          61.9663   78.9936   13.5743 O.co2   1  UNL1       -0.5446
     20 C          63.9214   91.6756   13.4336 C.3     1  UNL1        0.1010
     21 N          65.9572   92.7009   14.6803 N.3     1  UNL1       -0.3215
     22 C          65.3682   92.0712   13.4529 C.3     1  UNL1        0.0644
     23 H          65.2377   92.7839   15.3985 H       1  UNL1        0.1188
     24 H          66.3149   93.6277   14.4487 H       1  UNL1        0.1188
     25 C          66.2260   91.8370   12.2449 C.3     1  UNL1        0.0447
     26 C          66.5719   92.9804   11.3377 C.ar    1  UNL1        0.0090
     27 C          66.0130   94.3463   11.6060 C.ar    1  UNL1        0.0300
     28 C          66.3588   95.4897   10.6988 C.ar    1  UNL1        0.1672
     29 F          65.7999   96.8555   10.9671 F       1  UNL1       -0.2018
     30 C          67.2636   95.2671    9.5232 C.ar    1  UNL1        0.1696
     31 F          67.6095   96.4105    8.6160 F       1  UNL1       -0.2017
     32 C          67.8225   93.9013    9.2549 C.ar    1  UNL1        0.0612
     33 C          67.4766   92.7579   10.1622 C.ar    1  UNL1        0.1386
     34 F          68.0355   91.3920    9.8938 F       1  UNL1       -0.2044
@<TRIPOS>UNITY_ATOM_ATTR
18 1
charge -1
@<TRIPOS>BOND
     1    22    21    1
     2    22    20    1
     3    20     1    1
     4     1     2    2
     5     1     3   am
     6     3     4    1
     7     4     5    1
     8     5     6    1
     9     6     7   am
    10     7     8    2
    11     7    11    1
    12    11    12   ar
    13    12    13   ar
    14    13    14   ar
    15    14    15   ar
    16    15    17    1
    17    17    18   ar
    18    17    19   ar
    19    15    16   ar
    20     6     9    1
    21     9    10    1
    22    22    25    1
    23    25    26    1
    24    26    27   ar
    25    27    28   ar
    26    28    29    1
    27    28    30   ar
    28    30    31    1
    29    30    32   ar
    30    32    33   ar
    31    33    34    1
    32    10     3    1
    33    33    26   ar
    34    16    11   ar
    35    21    23    1
    36    21    24    1
@<TRIPOS>MOLECULE
*****
 34 36 0 0 0
SMALL
GASTEIGER

@<TRIPOS>ATOM
      1 C          60.2561   88.8183   10.9743 C.2     1  UNL1        0.2271
      2 O          59.5389   88.1802   12.1269 O.2     1  UNL1       -0.2748
      3 N          61.4954   89.6277   11.2174 N.am    1  UNL1       -0.2760
      4 C          62.0175   89.7989   12.6131 C.3     1  UNL1        0.1149
      5 C          63.2568   90.6083   12.8561 C.3     1  UNL1        0.1152
      6 N          63.9739   91.2464   11.7035 N.am    1  UNL1       -0.2726
      7 C          65.2132   92.0558   11.9466 C.2     1  UNL1        0.2491
      8 O          65.9304   92.6939   10.7940 O.2     1  UNL1       -0.2699
      9 C          63.4518   91.0751   10.3078 C.3     1  UNL1        0.1152
     10 C          62.2125   90.2658   10.0648 C.3     1  UNL1        0.1149
     11 C          65.7354   92.2270   13.3423 C.ar    1  UNL1        0.0536
     12 C          64.8361   91.9740   14.5159 C.ar    1  UNL1        0.0045
     13 C          65.3583   92.1453   15.9116 C.ar    1  UNL1        0.0002
     14 C          66.7798   92.5696   16.1337 C.ar    1  UNL1        0.0011
     15 C          67.6791   92.8226   14.9602 C.ar    1  UNL1        0.0141
     16 C          67.1569   92.6513   13.5645 C.ar    1  UNL1        0.0056
     17 C          69.1005   93.2469   15.1823 C.2     1  UNL1        0.0729
     18 O          70.1881   92.7200   14.2937 O.co2   1  UNL1       -0.5446
     19 O          69.4345   94.1980   16.2931 O.co2   1  UNL1       -0.5446
     20 C          59.7339   88.6470    9.5786 C.3     1  UNL1        0.1010
     21 N          58.9666   86.5569    8.2397 N.3     1  UNL1       -0.3215
     22 C          60.0667   87.4089    8.8000 C.3     1  UNL1        0.0644
     23 H          58.0637   86.9650    8.4818 H       1  UNL1        0.1188
     24 H          59.0311   85.6174    8.6316 H       1  UNL1        0.1188
     25 C          61.4996   87.0227    8.5816 C.3     1  UNL1        0.0447
     26 C          62.1189   85.9381    9.4121 C.ar    1  UNL1        0.0090
     27 C          61.8758   85.8950   10.8917 C.ar    1  UNL1        0.0300
     28 C          62.4951   84.8103   11.7223 C.ar    1  UNL1        0.1672
     29 F          62.2519   84.7673   13.2018 F       1  UNL1       -0.2018
     30 C          63.3577   83.7687   11.0734 C.ar    1  UNL1        0.1696
     31 F          63.9770   82.6841   11.9039 F       1  UNL1       -0.2017
     32 C          63.6009   83.8118    9.5939 C.ar    1  UNL1        0.0612
     33 C          62.9815   84.8965    8.7632 C.ar    1  UNL1        0.1386
     34 F          63.2247   84.9395    7.2837 F       1  UNL1       -0.2044
@<TRIPOS>UNITY_ATOM_ATTR
18 1
charge -1
@<TRIPOS>BOND
     1    22    21    1
     2    22    20    1
     3    20     1    1
     4     1     2    2
     5     1     3   am
     6     3     4    1
     7     4     5    1
     8     5     6    1
     9     6     7   am
    10     7     8    2
    11     7    11    1
    12    11    12   ar
    13    12    13   ar
    14    13    14   ar
    15    14    15   ar
    16    15    17    1
    17    17    18   ar
    18    17    19   ar
    19    15    16   ar
    20     6     9    1
    21     9    10    1
    22    22    25    1
    23    25    26    1
    24    26    27   ar
    25    27    28   ar
    26    28    29    1
    27    28    30   ar
    28    30    31    1
    29    30    32   ar
    30    32    33   ar
    31    33    34    1
    32    10     3    1
    33    33    26   ar
    34    16    11   ar
    35    21    23    1
    36    21    24    1
@<TRIPOS>MOLECULE
*****
 34 36 0 0 0
SMALL
GASTEIGER

@<TRIPOS>ATOM
      1 C          60.2706   88.8680   10.7016 C.2     1  UNL1        0.2271
      2 O          59.5821   88.2113   11.8612 O.2     1  UNL1       -0.2748
      3 N          61.5237   89.6617   10.9250 N.am    1  UNL1       -0.2760
      4 C          62.0882   89.7987   12.3079 C.3     1  UNL1        0.1149
      5 C          63.3412   90.5924   12.5313 C.3     1  UNL1        0.1152
      6 N          64.0297   91.2491   11.3717 N.am    1  UNL1       -0.2726
      7 C          65.2828   92.0429   11.5950 C.2     1  UNL1        0.2491
      8 O          65.9713   92.6996   10.4354 O.2     1  UNL1       -0.2699
      9 C          63.4652   91.1121    9.9887 C.3     1  UNL1        0.1152
     10 C          62.2122   90.3184    9.7654 C.3     1  UNL1        0.1149
     11 C          65.8473   92.1799   12.9780 C.ar    1  UNL1        0.0536
     12 C          67.3115   92.4452   13.1675 C.ar    1  UNL1        0.0045
     13 C          67.8759   92.5822   14.5505 C.ar    1  UNL1        0.0002
     14 C          66.9763   92.4539   15.7439 C.ar    1  UNL1        0.0011
     15 C          65.5122   92.1886   15.5543 C.ar    1  UNL1        0.0141
     16 C          64.9477   92.0516   14.1714 C.ar    1  UNL1        0.0056
     17 C          64.6125   92.0604   16.7477 C.2     1  UNL1        0.0729
     18 O          64.7957   92.9700   17.9263 O.co2   1  UNL1       -0.5446
     19 O          63.5297   91.0224   16.7625 O.co2   1  UNL1       -0.5446
     20 C          59.7061   88.7310    9.3187 C.3     1  UNL1        0.1010
     21 N          58.6375   86.6389    8.2090 N.3     1  UNL1       -0.3215
     22 C          59.8538   87.4378    8.5731 C.3     1  UNL1        0.0644
     23 H          57.8024   87.1194    8.5437 H       1  UNL1        0.1188
     24 H          58.6949   85.7164    8.6405 H       1  UNL1        0.1188
     25 C          61.2176   86.9435    8.1915 C.3     1  UNL1        0.0447
     26 C          61.9293   85.9555    9.0673 C.ar    1  UNL1        0.0090
     27 C          61.6714   85.9408   10.5449 C.ar    1  UNL1        0.0300
     28 C          62.3831   84.9527   11.4207 C.ar    1  UNL1        0.1672
     29 F          62.1252   84.9381   12.8983 F       1  UNL1       -0.2018
     30 C          63.3529   83.9793   10.8190 C.ar    1  UNL1        0.1696
     31 F          64.0646   82.9912   11.6948 F       1  UNL1       -0.2017
     32 C          63.6108   83.9939    9.3415 C.ar    1  UNL1        0.0612
     33 C          62.8990   84.9820    8.4656 C.ar    1  UNL1        0.1386
     34 F          63.1570   84.9967    6.9880 F       1  UNL1       -0.2044
@<TRIPOS>UNITY_ATOM_ATTR
18 1
charge -1
@<TRIPOS>BOND
     1    22    21    1
     2    22    20    1
     3    20     1    1
     4     1     2    2
     5     1     3   am
     6     3     4    1
     7     4     5    1
     8     5     6    1
     9     6     7   am
    10     7     8    2
    11     7    11    1
    12    11    12   ar
    13    12    13   ar
    14    13    14   ar
    15    14    15   ar
    16    15    17    1
    17    17    18   ar
    18    17    19   ar
    19    15    16   ar
    20     6     9    1
    21     9    10    1
    22    22    25    1
    23    25    26    1
    24    26    27   ar
    25    27    28   ar
    26    28    29    1
    27    28    30   ar
    28    30    31    1
    29    30    32   ar
    30    32    33   ar
    31    33    34    1
    32    10     3    1
    33    33    26   ar
    34    16    11   ar
    35    21    23    1
    36    21    24    1
@<TRIPOS>MOLECULE
*****
 34 36 0 0 0
SMALL
GASTEIGER

@<TRIPOS>ATOM
      1 C          63.3121   90.0581   11.7483 C.2     1  UNL1        0.2271
      2 O          62.5833   90.1170   10.4386 O.2     1  UNL1       -0.2748
      3 N          63.4509   88.7511   12.4713 N.am    1  UNL1       -0.2760
      4 C          62.8609   87.5031   11.8845 C.3     1  UNL1        0.1149
      5 C          62.9997   86.1962   12.6075 C.3     1  UNL1        0.1152
      6 N          63.7285   86.1374   13.9172 N.am    1  UNL1       -0.2726
      7 C          63.8673   84.8304   14.6402 C.2     1  UNL1        0.2491
      8 O          64.5962   84.7715   15.9499 O.2     1  UNL1       -0.2699
      9 C          64.3186   87.3854   14.5039 C.3     1  UNL1        0.1152
     10 C          64.1797   88.6923   13.7810 C.3     1  UNL1        0.1149
     11 C          63.2773   83.5824   14.0535 C.ar    1  UNL1        0.0536
     12 C          62.2731   82.7882   14.8351 C.ar    1  UNL1        0.0045
     13 C          61.6831   81.5402   14.2483 C.ar    1  UNL1        0.0002
     14 C          62.0972   81.0863   12.8799 C.ar    1  UNL1        0.0011
     15 C          63.1014   81.8805   12.0983 C.ar    1  UNL1        0.0141
     16 C          63.6914   83.1285   12.6850 C.ar    1  UNL1        0.0056
     17 C          63.5155   81.4266   10.7300 C.2     1  UNL1        0.0729
     18 O          64.5483   82.1992    9.9641 O.co2   1  UNL1       -0.5446
     19 O          62.8970   80.2000   10.1274 O.co2   1  UNL1       -0.5446
     20 C          63.9022   91.3061   12.3350 C.3     1  UNL1        0.1010
     21 N          64.1760   92.4144   10.0011 N.3     1  UNL1       -0.3215
     22 C          64.5725   92.3095   11.4440 C.3     1  UNL1        0.0644
     23 H          63.4432   91.7341    9.7996 H       1  UNL1        0.1188
     24 H          64.9865   92.2258    9.4112 H       1  UNL1        0.1188
     25 C          65.6393   93.2081   11.9958 C.3     1  UNL1        0.0447
     26 C          66.3983   92.8040   13.2249 C.ar    1  UNL1        0.0090
     27 C          65.8145   93.0557   14.5835 C.ar    1  UNL1        0.0300
     28 C          66.5735   92.6516   15.8126 C.ar    1  UNL1        0.1672
     29 F          65.9897   92.9032   17.1711 F       1  UNL1       -0.2018
     30 C          67.9164   91.9960   15.6830 C.ar    1  UNL1        0.1696
     31 F          68.6754   91.5919   16.9120 F       1  UNL1       -0.2017
     32 C          68.5002   91.7443   14.3244 C.ar    1  UNL1        0.0612
     33 C          67.7412   92.1484   13.0953 C.ar    1  UNL1        0.1386
     34 F          68.3250   91.8968   11.7367 F       1  UNL1       -0.2044
@<TRIPOS>UNITY_ATOM_ATTR
18 1
charge -1
@<TRIPOS>BOND
     1    22    21    1
     2    22    20    1
     3    20     1    1
     4     1     2    2
     5     1     3   am
     6     3     4    1
     7     4     5    1
     8     5     6    1
     9     6     7   am
    10     7     8    2
    11     7    11    1
    12    11    12   ar
    13    12    13   ar
    14    13    14   ar
    15    14    15   ar
    16    15    17    1
    17    17    18   ar
    18    17    19   ar
    19    15    16   ar
    20     6     9    1
    21     9    10    1
    22    22    25    1
    23    25    26    1
    24    26    27   ar
    25    27    28   ar
    26    28    29    1
    27    28    30   ar
    28    30    31    1
    29    30    32   ar
    30    32    33   ar
    31    33    34    1
    32    10     3    1
    33    33    26   ar
    34    16    11   ar
    35    21    23    1
    36    21    24    1
@<TRIPOS>MOLECULE
*****
 34 36 0 0 0
SMALL
GASTEIGER

@<TRIPOS>ATOM
      1 C          61.8902   88.8422   10.7387 C.2     1  UNL1        0.2271
      2 O          61.2691   88.9969    9.3821 O.2     1  UNL1       -0.2748
      3 N          62.8638   89.8678   11.2392 N.am    1  UNL1       -0.2760
      4 C          63.2161   91.0481   10.3832 C.3     1  UNL1        0.1149
      5 C          64.1896   92.0736   10.8837 C.3     1  UNL1        0.1152
      6 N          64.8107   91.9189   12.2403 N.am    1  UNL1       -0.2726
      7 C          65.7843   92.9445   12.7408 C.2     1  UNL1        0.2491
      8 O          66.4054   92.7898   14.0973 O.2     1  UNL1       -0.2699
      9 C          64.4584   90.7386   13.0963 C.3     1  UNL1        0.1152
     10 C          63.4849   89.7131   12.5957 C.3     1  UNL1        0.1149
     11 C          66.1366   94.1248   11.8848 C.ar    1  UNL1        0.0536
     12 C          66.1336   95.5049   12.4722 C.ar    1  UNL1        0.0045
     13 C          66.4860   96.6852   11.6161 C.ar    1  UNL1        0.0002
     14 C          66.8413   96.4853   10.1726 C.ar    1  UNL1        0.0011
     15 C          66.8442   95.1051    9.5851 C.ar    1  UNL1        0.0141
     16 C          66.4919   93.9249   10.4412 C.ar    1  UNL1        0.0056
     17 C          67.1995   94.9052    8.1416 C.2     1  UNL1        0.0729
     18 O          68.1128   93.7843    7.7423 O.co2   1  UNL1       -0.5446
     19 O          66.6416   95.8263    7.0974 O.co2   1  UNL1       -0.5446
     20 C          61.5379   87.6620   11.5947 C.3     1  UNL1        0.1010
     21 N          61.3757   85.6556    9.9520 N.3     1  UNL1       -0.3215
     22 C          61.9611   86.2832   11.1822 C.3     1  UNL1        0.0644
     23 H          60.7131   86.3017    9.5231 H       1  UNL1        0.1188
     24 H          60.8937   84.7935   10.2066 H       1  UNL1        0.1188
     25 C          62.9697   85.5322   11.9999 C.3     1  UNL1        0.0447
     26 C          62.9032   84.0360   12.0834 C.ar    1  UNL1        0.0090
     27 C          62.2941   83.3783   13.2861 C.ar    1  UNL1        0.0300
     28 C          62.2276   81.8821   13.3696 C.ar    1  UNL1        0.1672
     29 F          61.6186   81.2244   14.5723 F       1  UNL1       -0.2018
     30 C          62.7701   81.0436   12.2504 C.ar    1  UNL1        0.1696
     31 F          62.7036   79.5474   12.3339 F       1  UNL1       -0.2017
     32 C          63.3791   81.7013   11.0477 C.ar    1  UNL1        0.0612
     33 C          63.4457   83.1975   10.9642 C.ar    1  UNL1        0.1386
     34 F          64.0547   83.8552    9.7615 F       1  UNL1       -0.2044
@<TRIPOS>UNITY_ATOM_ATTR
18 1
charge -1
@<TRIPOS>BOND
     1    22    21    1
     2    22    20    1
     3    20     1    1
     4     1     2    2
     5     1     3   am
     6     3     4    1
     7     4     5    1
     8     5     6    1
     9     6     7   am
    10     7     8    2
    11     7    11    1
    12    11    12   ar
    13    12    13   ar
    14    13    14   ar
    15    14    15   ar
    16    15    17    1
    17    17    18   ar
    18    17    19   ar
    19    15    16   ar
    20     6     9    1
    21     9    10    1
    22    22    25    1
    23    25    26    1
    24    26    27   ar
    25    27    28   ar
    26    28    29    1
    27    28    30   ar
    28    30    31    1
    29    30    32   ar
    30    32    33   ar
    31    33    34    1
    32    10     3    1
    33    33    26   ar
    34    16    11   ar
    35    21    23    1
    36    21    24    1
@<TRIPOS>MOLECULE
*****
 34 36 0 0 0
SMALL
GASTEIGER

@<TRIPOS>ATOM
      1 C          60.3349   89.1558    9.4202 C.2     1  UNL1        0.2271
      2 O          60.0686   90.1678    8.3455 O.2     1  UNL1       -0.2748
      3 N          61.3695   89.4318   10.4706 N.am    1  UNL1       -0.2760
      4 C          62.1378   90.7199   10.4464 C.3     1  UNL1        0.1149
      5 C          63.1724   90.9959   11.4968 C.3     1  UNL1        0.1152
      6 N          63.4387   89.9839   12.5715 N.am    1  UNL1       -0.2726
      7 C          64.4733   90.2600   13.6219 C.2     1  UNL1        0.2491
      8 O          64.7396   89.2480   14.6966 O.2     1  UNL1       -0.2699
      9 C          62.6704   88.6958   12.5957 C.3     1  UNL1        0.1152
     10 C          61.6358   88.4198   11.5453 C.3     1  UNL1        0.1149
     11 C          65.2416   91.5480   13.5977 C.ar    1  UNL1        0.0536
     12 C          65.8264   92.0965   14.8654 C.ar    1  UNL1        0.0045
     13 C          66.5948   93.3846   14.8411 C.ar    1  UNL1        0.0002
     14 C          66.7782   94.1242   13.5491 C.ar    1  UNL1        0.0011
     15 C          66.1934   93.5757   12.2814 C.ar    1  UNL1        0.0141
     16 C          65.4251   92.2877   12.3056 C.ar    1  UNL1        0.0056
     17 C          66.3768   94.3153   10.9894 C.2     1  UNL1        0.0729
     18 O          67.6205   94.1082   10.1766 O.co2   1  UNL1       -0.5446
     19 O          65.3167   95.2621   10.5100 O.co2   1  UNL1       -0.5446
     20 C          59.5666   87.8677    9.4444 C.3     1  UNL1        0.1010
     21 N          58.4908   86.3952    7.5938 N.3     1  UNL1       -0.3215
     22 C          59.7089   86.8882    8.3173 C.3     1  UNL1        0.0644
     23 H          57.6586   86.8261    7.9964 H       1  UNL1        0.1188
     24 H          58.4274   85.3814    7.6864 H       1  UNL1        0.1188
     25 C          61.0691   86.4016    7.9137 C.3     1  UNL1        0.0447
     26 C          61.8863   85.5824    8.8681 C.ar    1  UNL1        0.0090
     27 C          61.6063   85.6453   10.3405 C.ar    1  UNL1        0.0300
     28 C          62.4235   84.8260   11.2950 C.ar    1  UNL1        0.1672
     29 F          62.1435   84.8889   12.7672 F       1  UNL1       -0.2018
     30 C          63.5207   83.9439   10.7772 C.ar    1  UNL1        0.1696
     31 F          64.3378   83.1247   11.7316 F       1  UNL1       -0.2017
     32 C          63.8006   83.8810    9.3049 C.ar    1  UNL1        0.0612
     33 C          62.9835   84.7003    8.3503 C.ar    1  UNL1        0.1386
     34 F          63.2635   84.6374    6.8781 F       1  UNL1       -0.2044
@<TRIPOS>UNITY_ATOM_ATTR
18 1
charge -1
@<TRIPOS>BOND
     1    22    21    1
     2    22    20    1
     3    20     1    1
     4     1     2    2
     5     1     3   am
     6     3     4    1
     7     4     5    1
     8     5     6    1
     9     6     7   am
    10     7     8    2
    11     7    11    1
    12    11    12   ar
    13    12    13   ar
    14    13    14   ar
    15    14    15   ar
    16    15    17    1
    17    17    18   ar
    18    17    19   ar
    19    15    16   ar
    20     6     9    1
    21     9    10    1
    22    22    25    1
    23    25    26    1
    24    26    27   ar
    25    27    28   ar
    26    28    29    1
    27    28    30   ar
    28    30    31    1
    29    30    32   ar
    30    32    33   ar
    31    33    34    1
    32    10     3    1
    33    33    26   ar
    34    16    11   ar
    35    21    23    1
    36    21    24    1
@<TRIPOS>MOLECULE
*****
 34 36 0 0 0
SMALL
GASTEIGER

@<TRIPOS>ATOM
      1 C          60.5043   89.7078   10.3082 C.2     1  UNL1        0.2271
      2 O          59.6496   89.0969   11.3789 O.2     1  UNL1       -0.2748
      3 N          61.8178   90.3381   10.6656 N.am    1  UNL1       -0.2760
      4 C          62.2765   90.3575   12.0936 C.3     1  UNL1        0.1149
      5 C          63.5899   90.9877   12.4509 C.3     1  UNL1        0.1152
      6 N          64.4445   91.5986   11.3802 N.am    1  UNL1       -0.2726
      7 C          65.7580   92.2289   11.7376 C.2     1  UNL1        0.2491
      8 O          66.6127   92.8398   10.6669 O.2     1  UNL1       -0.2699
      9 C          63.9858   91.5792    9.9522 C.3     1  UNL1        0.1152
     10 C          62.6724   90.9490    9.5949 C.3     1  UNL1        0.1149
     11 C          66.2167   92.2483   13.1655 C.ar    1  UNL1        0.0536
     12 C          67.6795   92.3487   13.4821 C.ar    1  UNL1        0.0045
     13 C          68.1382   92.3681   14.9102 C.ar    1  UNL1        0.0002
     14 C          67.1341   92.2871   16.0216 C.ar    1  UNL1        0.0011
     15 C          65.6713   92.1867   15.7050 C.ar    1  UNL1        0.0141
     16 C          65.2126   92.1674   14.2770 C.ar    1  UNL1        0.0056
     17 C          64.6673   92.1058   16.8164 C.2     1  UNL1        0.0729
     18 O          63.5467   91.1113   16.7438 O.co2   1  UNL1       -0.5446
     19 O          64.7838   93.0193   18.0005 O.co2   1  UNL1       -0.5446
     20 C          60.0456   89.6884    8.8803 C.3     1  UNL1        0.1010
     21 N          58.9010   88.4432    6.9081 N.3     1  UNL1       -0.3215
     22 C          59.4852   88.4286    8.2895 C.3     1  UNL1        0.0644
     23 H          58.9672   89.3845    6.5209 H       1  UNL1        0.1188
     24 H          57.9217   88.1609    6.9500 H       1  UNL1        0.1188
     25 C          59.5090   87.1542    9.0803 C.3     1  UNL1        0.0447
     26 C          60.7432   86.3018    9.0921 C.ar    1  UNL1        0.0090
     27 C          61.3331   85.8182    7.8005 C.ar    1  UNL1        0.0300
     28 C          62.5673   84.9659    7.8122 C.ar    1  UNL1        0.1672
     29 F          63.1571   84.4823    6.5207 F       1  UNL1       -0.2018
     30 C          63.2117   84.5971    9.1156 C.ar    1  UNL1        0.1696
     31 F          64.4459   83.7448    9.1274 F       1  UNL1       -0.2017
     32 C          62.6219   85.0807   10.4072 C.ar    1  UNL1        0.0612
     33 C          61.3876   85.9331   10.3955 C.ar    1  UNL1        0.1386
     34 F          60.7978   86.4166   11.6870 F       1  UNL1       -0.2044
@<TRIPOS>UNITY_ATOM_ATTR
18 1
charge -1
@<TRIPOS>BOND
     1    22    21    1
     2    22    20    1
     3    20     1    1
     4     1     2    2
     5     1     3   am
     6     3     4    1
     7     4     5    1
     8     5     6    1
     9     6     7   am
    10     7     8    2
    11     7    11    1
    12    11    12   ar
    13    12    13   ar
    14    13    14   ar
    15    14    15   ar
    16    15    17    1
    17    17    18   ar
    18    17    19   ar
    19    15    16   ar
    20     6     9    1
    21     9    10    1
    22    22    25    1
    23    25    26    1
    24    26    27   ar
    25    27    28   ar
    26    28    29    1
    27    28    30   ar
    28    30    31    1
    29    30    32   ar
    30    32    33   ar
    31    33    34    1
    32    10     3    1
    33    33    26   ar
    34    16    11   ar
    35    21    23    1
    36    21    24    1
@<TRIPOS>MOLECULE
*****
 34 36 0 0 0
SMALL
GASTEIGER

@<TRIPOS>ATOM
      1 C          60.3544   89.1398    9.2982 C.2     1  UNL1        0.2271
      2 O          60.1946   90.1282    8.1813 O.2     1  UNL1       -0.2748
      3 N          61.3629   89.3878   10.3806 N.am    1  UNL1       -0.2760
      4 C          62.2115   90.6241   10.3461 C.3     1  UNL1        0.1149
      5 C          63.2199   90.8720   11.4285 C.3     1  UNL1        0.1152
      6 N          63.3797   89.8836   12.5454 N.am    1  UNL1       -0.2726
      7 C          64.3882   90.1316   13.6278 C.2     1  UNL1        0.2491
      8 O          64.5480   89.1431   14.7447 O.2     1  UNL1       -0.2699
      9 C          62.5311   88.6472   12.5799 C.3     1  UNL1        0.1152
     10 C          61.5226   88.3993   11.4975 C.3     1  UNL1        0.1149
     11 C          65.2368   91.3679   13.5933 C.ar    1  UNL1        0.0536
     12 C          65.1194   92.3264   12.4455 C.ar    1  UNL1        0.0045
     13 C          65.9681   93.5628   12.4110 C.ar    1  UNL1        0.0002
     14 C          66.9342   93.8406   13.5242 C.ar    1  UNL1        0.0011
     15 C          67.0516   92.8821   14.6720 C.ar    1  UNL1        0.0141
     16 C          66.2030   91.6458   14.7066 C.ar    1  UNL1        0.0056
     17 C          68.0177   93.1599   15.7853 C.2     1  UNL1        0.0729
     18 O          68.5142   94.5564   16.0165 O.co2   1  UNL1       -0.5446
     19 O          68.4875   92.0413   16.6674 O.co2   1  UNL1       -0.5446
     20 C          59.5057   87.9034    9.3327 C.3     1  UNL1        0.1010
     21 N          58.4025   86.3409    7.5745 N.3     1  UNL1       -0.3215
     22 C          59.6319   86.8766    8.2466 C.3     1  UNL1        0.0644
     23 H          57.5754   86.7815    7.9774 H       1  UNL1        0.1188
     24 H          58.3517   85.3317    7.7129 H       1  UNL1        0.1188
     25 C          60.9873   86.3854    7.8326 C.3     1  UNL1        0.0447
     26 C          61.8245   85.5950    8.7941 C.ar    1  UNL1        0.0090
     27 C          61.5416   85.6622   10.2657 C.ar    1  UNL1        0.0300
     28 C          62.3788   84.8718   11.2271 C.ar    1  UNL1        0.1672
     29 F          62.0959   84.9390   12.6987 F       1  UNL1       -0.2018
     30 C          63.4988   84.0143   10.7171 C.ar    1  UNL1        0.1696
     31 F          64.3359   83.2239   11.6786 F       1  UNL1       -0.2017
     32 C          63.7817   83.9471    9.2456 C.ar    1  UNL1        0.0612
     33 C          62.9445   84.7375    8.2840 C.ar    1  UNL1        0.1386
     34 F          63.2274   84.6703    6.8125 F       1  UNL1       -0.2044
@<TRIPOS>UNITY_ATOM_ATTR
18 1
charge -1
@<TRIPOS>BOND
     1    22    21    1
     2    22    20    1
     3    20     1    1
     4     1     2    2
     5     1     3   am
     6     3     4    1
     7     4     5    1
     8     5     6    1
     9     6     7   am
    10     7     8    2
    11     7    11    1
    12    11    12   ar
    13    12    13   ar
    14    13    14   ar
    15    14    15   ar
    16    15    17    1
    17    17    18   ar
    18    17    19   ar
    19    15    16   ar
    20     6     9    1
    21     9    10    1
    22    22    25    1
    23    25    26    1
    24    26    27   ar
    25    27    28   ar
    26    28    29    1
    27    28    30   ar
    28    30    31    1
    29    30    32   ar
    30    32    33   ar
    31    33    34    1
    32    10     3    1
    33    33    26   ar
    34    16    11   ar
    35    21    23    1
    36    21    24    1
