@<TRIPOS>MOLECULE
*****
 24 27 0 0 0
SMALL
GASTEIGER

@<TRIPOS>ATOM
      1 O          65.4938   84.7338   14.3899 O.2     1  UNL1       -0.2448
      2 C          64.2431   84.5434   15.1958 C.2     1  UNL1        0.3428
      3 C          63.7070   85.6717   16.0263 C.2     1  UNL1        0.0959
      4 C          63.0137   85.5401   17.3500 C.2     1  UNL1        0.1049
      5 N          62.6483   86.9167   17.8206 N.2     1  UNL1       -0.2475
      6 C          63.1157   87.8990   16.7878 C.2     1  UNL1        0.0670
      7 C          63.0300   89.3947   16.7138 C.3     1  UNL1        0.1116
      8 C          63.5986   90.1210   15.5309 C.2     1  UNL1        0.1443
      9 O          63.5129   91.6167   15.4570 O.2     1  UNL1       -0.5071
     10 C          64.2529   89.3515   14.4220 C.2     1  UNL1        0.1698
     11 F          64.8215   90.0777   13.2391 F       1  UNL1       -0.2013
     12 C          64.3386   87.8557   14.4959 C.2     1  UNL1        0.0339
     13 C          63.7700   87.1295   15.6788 C.2     1  UNL1        0.0241
     14 H          63.1042   92.0973   16.1497 H       1  UNL1        0.2918
     15 O          63.5285   83.2248   15.1713 O.3     1  UNL1       -0.4454
     16 C          62.5763   82.9084   14.0563 C.3     1  UNL1        0.2087
     17 C          62.9480   83.2290   12.6389 C.3     1  UNL1        0.0445
     18 C          62.4866   84.5124   12.0144 C.3     1  UNL1        0.0210
     19 C          62.8583   84.8329   10.5970 C.3     1  UNL1        0.0722
     20 N          63.6914   83.8700    9.8041 N.3     1  UNL1       -0.2727
     21 C          64.1528   82.5866   10.4285 C.3     1  UNL1        0.0722
     22 C          63.7811   82.2661   11.8459 C.3     1  UNL1        0.0210
     23 C          63.5128   83.6509   10.5773 C.3     1  UNL1        0.0722
     24 C          63.1768   83.3609   11.8590 C.3     1  UNL1        0.0210
@<TRIPOS>BOND
     1     1     2    2
     2     2    15    1
     3    15    16    1
     4    16    17    1
     5    17    18    1
     6    18    19    1
     7    19    20    1
     8    20    21    1
     9    21    22    1
    10    20    23    1
    11    23    24    1
    12     2     3    1
    13     3     4    2
    14     4     5    1
    15     5     6    2
    16     6     7    1
    17     7     8    1
    18     8     9    1
    19     8    10    2
    20    10    11    1
    21    10    12    1
    22    12    13    2
    23    22    17    1
    24    13     3    1
    25    24    17    1
    26    13     6    1
    27     9    14    1
@<TRIPOS>MOLECULE
*****
 24 27 0 0 0
SMALL
GASTEIGER

@<TRIPOS>ATOM
      1 O          64.4289   83.2731   15.4758 O.2     1  UNL1       -0.2448
      2 C          63.9713   84.5889   14.9197 C.2     1  UNL1        0.3428
      3 C          63.5304   85.6825   15.8469 C.2     1  UNL1        0.0959
      4 C          62.8551   85.4951   17.1731 C.2     1  UNL1        0.1049
      5 N          62.5947   86.8522   17.7565 N.2     1  UNL1       -0.2475
      6 C          63.1091   87.8784   16.7909 C.2     1  UNL1        0.0670
      7 C          63.1257   89.3777   16.8338 C.3     1  UNL1        0.1116
      8 C          63.7205   90.1540   15.6964 C.2     1  UNL1        0.1443
      9 O          63.7370   91.6533   15.7393 O.2     1  UNL1       -0.5071
     10 C          64.2988   89.4311   14.5162 C.2     1  UNL1        0.1698
     11 F          64.8936   90.2074   13.3789 F       1  UNL1       -0.2013
     12 C          64.2822   87.9317   14.4734 C.2     1  UNL1        0.0339
     13 C          63.6874   87.1554   15.6106 C.2     1  UNL1        0.0241
     14 H          63.3758   92.1049   16.4766 H       1  UNL1        0.2918
     15 O          63.9547   84.8112   13.4363 O.3     1  UNL1       -0.4454
     16 C          62.7730   84.3692   12.6249 C.3     1  UNL1        0.2087
     17 C          62.5093   84.9894   11.2848 C.3     1  UNL1        0.0445
     18 C          61.4665   86.0585   11.1453 C.3     1  UNL1        0.0210
     19 C          61.2028   86.6786    9.8051 C.3     1  UNL1        0.0722
     20 N          61.9819   86.2295    8.6046 N.3     1  UNL1       -0.2727
     21 C          63.0247   85.1604    8.7442 C.3     1  UNL1        0.0722
     22 C          63.2884   84.5403   10.0843 C.3     1  UNL1        0.0210
     23 C          62.1617   85.8604    9.3182 C.3     1  UNL1        0.0722
     24 C          62.4002   85.2996   10.5299 C.3     1  UNL1        0.0210
@<TRIPOS>BOND
     1     1     2    2
     2     2    15    1
     3    15    16    1
     4    16    17    1
     5    17    18    1
     6    18    19    1
     7    19    20    1
     8    20    21    1
     9    21    22    1
    10    20    23    1
    11    23    24    1
    12     2     3    1
    13     3     4    2
    14     4     5    1
    15     5     6    2
    16     6     7    1
    17     7     8    1
    18     8     9    1
    19     8    10    2
    20    10    11    1
    21    10    12    1
    22    12    13    2
    23    22    17    1
    24    13     3    1
    25    24    17    1
    26    13     6    1
    27     9    14    1
@<TRIPOS>MOLECULE
*****
 24 27 0 0 0
SMALL
GASTEIGER

@<TRIPOS>ATOM
      1 O          65.6681   84.4301   14.4622 O.2     1  UNL1       -0.2448
      2 C          64.4455   85.2579   14.1977 C.2     1  UNL1        0.3428
      3 C          63.8665   86.1101   15.2880 C.2     1  UNL1        0.0959
      4 C          63.1516   85.6134   16.5095 C.2     1  UNL1        0.1049
      5 N          62.7440   86.8049   17.3245 N.2     1  UNL1       -0.2475
      6 C          63.2071   88.0379   16.6067 C.2     1  UNL1        0.0670
      7 C          63.0866   89.4962   16.9365 C.3     1  UNL1        0.1116
      8 C          63.6599   90.5252   16.0077 C.2     1  UNL1        0.1443
      9 O          63.5394   91.9834   16.3375 O.2     1  UNL1       -0.5071
     10 C          64.3536   90.0957   14.7490 C.2     1  UNL1        0.1698
     11 F          64.9269   91.1245   13.8202 F       1  UNL1       -0.2013
     12 C          64.4741   88.6373   14.4192 C.2     1  UNL1        0.0339
     13 C          63.9008   87.6085   15.3480 C.2     1  UNL1        0.0241
     14 H          63.1061   92.2517   17.1238 H       1  UNL1        0.2918
     15 O          63.8020   85.2337   12.8430 O.3     1  UNL1       -0.4454
     16 C          62.5224   84.4792   12.6338 C.3     1  UNL1        0.2087
     17 C          62.5058   82.9839   12.7505 C.3     1  UNL1        0.0445
     18 C          62.0691   82.3363   14.0311 C.3     1  UNL1        0.0210
     19 C          62.0525   80.8409   14.1476 C.3     1  UNL1        0.0722
     20 N          62.4727   79.9932   12.9837 N.3     1  UNL1       -0.2727
     21 C          62.9094   80.6408   11.7031 C.3     1  UNL1        0.0722
     22 C          62.9260   82.1361   11.5865 C.3     1  UNL1        0.0210
     23 C          62.4984   80.8085   12.8724 C.3     1  UNL1        0.0722
     24 C          62.5134   82.1607   12.7669 C.3     1  UNL1        0.0210
@<TRIPOS>BOND
     1     1     2    2
     2     2    15    1
     3    15    16    1
     4    16    17    1
     5    17    18    1
     6    18    19    1
     7    19    20    1
     8    20    21    1
     9    21    22    1
    10    20    23    1
    11    23    24    1
    12     2     3    1
    13     3     4    2
    14     4     5    1
    15     5     6    2
    16     6     7    1
    17     7     8    1
    18     8     9    1
    19     8    10    2
    20    10    11    1
    21    10    12    1
    22    12    13    2
    23    22    17    1
    24    13     3    1
    25    24    17    1
    26    13     6    1
    27     9    14    1
@<TRIPOS>MOLECULE
*****
 24 27 0 0 0
SMALL
GASTEIGER

@<TRIPOS>ATOM
      1 O          63.3670   82.6875   15.2127 O.2     1  UNL1       -0.2448
      2 C          63.4347   83.9015   14.3343 C.2     1  UNL1        0.3428
      3 C          63.6997   83.7507   12.8656 C.2     1  UNL1        0.0959
      4 C          64.6966   82.8205   12.2405 C.2     1  UNL1        0.1049
      5 N          64.6273   82.9987   10.7527 N.2     1  UNL1       -0.2475
      6 C          63.5874   84.0389   10.4583 C.2     1  UNL1        0.0670
      7 C          63.0885   84.6229    9.1699 C.3     1  UNL1        0.1116
      8 C          62.0163   85.6718    9.1874 C.2     1  UNL1        0.1443
      9 O          61.5174   86.2558    7.8990 O.2     1  UNL1       -0.5071
     10 C          61.4430   86.1366   10.4932 C.2     1  UNL1        0.1698
     11 F          60.3708   87.1854   10.5107 F       1  UNL1       -0.2013
     12 C          61.9419   85.5525   11.7817 C.2     1  UNL1        0.0339
     13 C          63.0141   84.5037   11.7642 C.2     1  UNL1        0.0241
     14 H          61.8756   85.9655    7.0833 H       1  UNL1        0.2918
     15 O          63.2375   85.2662   14.9246 O.3     1  UNL1       -0.4454
     16 C          64.3269   86.2923   14.8225 C.3     1  UNL1        0.2087
     17 C          64.0250   87.7363   15.0937 C.3     1  UNL1        0.0445
     18 C          64.3194   88.7729   14.0503 C.3     1  UNL1        0.0210
     19 C          64.0174   90.2169   14.3216 C.3     1  UNL1        0.0722
     20 N          63.4212   90.6243   15.6363 N.3     1  UNL1       -0.2727
     21 C          63.1268   89.5877   16.6797 C.3     1  UNL1        0.0722
     22 C          63.4288   88.1437   16.4085 C.3     1  UNL1        0.0210
     23 C          63.5693   89.8210   15.5334 C.3     1  UNL1        0.0722
     24 C          63.8423   88.5152   15.2882 C.3     1  UNL1        0.0210
@<TRIPOS>BOND
     1     1     2    2
     2     2    15    1
     3    15    16    1
     4    16    17    1
     5    17    18    1
     6    18    19    1
     7    19    20    1
     8    20    21    1
     9    21    22    1
    10    20    23    1
    11    23    24    1
    12     2     3    1
    13     3     4    2
    14     4     5    1
    15     5     6    2
    16     6     7    1
    17     7     8    1
    18     8     9    1
    19     8    10    2
    20    10    11    1
    21    10    12    1
    22    12    13    2
    23    22    17    1
    24    13     3    1
    25    24    17    1
    26    13     6    1
    27     9    14    1
@<TRIPOS>MOLECULE
*****
 24 27 0 0 0
SMALL
GASTEIGER

@<TRIPOS>ATOM
      1 O          63.2142   86.0573   13.2791 O.2     1  UNL1       -0.2448
      2 C          62.7499   86.0825   11.8529 C.2     1  UNL1        0.3428
      3 C          62.2943   87.3712   11.2352 C.2     1  UNL1        0.0959
      4 C          62.6976   88.7487   11.6706 C.2     1  UNL1        0.1049
      5 N          62.0079   89.7375   10.7780 N.2     1  UNL1       -0.2475
      6 C          61.1783   88.9710    9.7910 C.2     1  UNL1        0.0670
      7 C          60.2846   89.4158    8.6714 C.3     1  UNL1        0.1116
      8 C          59.5678   88.3981    7.8344 C.2     1  UNL1        0.1443
      9 O          58.6741   88.8429    6.7148 O.2     1  UNL1       -0.5071
     10 C          59.7448   86.9356    8.1169 C.2     1  UNL1        0.1698
     11 F          59.0281   85.9179    7.2799 F       1  UNL1       -0.2013
     12 C          60.6386   86.4908    9.2365 C.2     1  UNL1        0.0339
     13 C          61.3553   87.5085   10.0735 C.2     1  UNL1        0.0241
     14 H          58.5636   89.7564    6.5383 H       1  UNL1        0.2918
     15 O          62.7413   84.8189   11.0446 O.3     1  UNL1       -0.4454
     16 C          63.6158   83.6673   11.4434 C.3     1  UNL1        0.2087
     17 C          63.0348   82.5127   12.2045 C.3     1  UNL1        0.0445
     18 C          62.3909   82.7424   13.5396 C.3     1  UNL1        0.0210
     19 C          61.8098   81.5877   14.3006 C.3     1  UNL1        0.0722
     20 N          61.8727   80.2034   13.7265 N.3     1  UNL1       -0.2727
     21 C          62.5166   79.9737   12.3913 C.3     1  UNL1        0.0722
     22 C          63.0976   81.1284   11.6303 C.3     1  UNL1        0.0210
     23 C          62.2047   80.8047   13.2725 C.3     1  UNL1        0.0722
     24 C          62.7301   81.8487   12.5843 C.3     1  UNL1        0.0210
@<TRIPOS>BOND
     1     1     2    2
     2     2    15    1
     3    15    16    1
     4    16    17    1
     5    17    18    1
     6    18    19    1
     7    19    20    1
     8    20    21    1
     9    21    22    1
    10    20    23    1
    11    23    24    1
    12     2     3    1
    13     3     4    2
    14     4     5    1
    15     5     6    2
    16     6     7    1
    17     7     8    1
    18     8     9    1
    19     8    10    2
    20    10    11    1
    21    10    12    1
    22    12    13    2
    23    22    17    1
    24    13     3    1
    25    24    17    1
    26    13     6    1
    27     9    14    1
@<TRIPOS>MOLECULE
*****
 24 27 0 0 0
SMALL
GASTEIGER

@<TRIPOS>ATOM
      1 O          63.3304   90.4204   16.5842 O.2     1  UNL1       -0.2448
      2 C          63.4984   89.5257   15.3921 C.2     1  UNL1        0.3428
      3 C          63.5973   90.1182   14.0176 C.2     1  UNL1        0.0959
      4 C          62.7276   89.7747   12.8447 C.2     1  UNL1        0.1049
      5 N          63.1761   90.6025   11.6770 N.2     1  UNL1       -0.2475
      6 C          64.3230   91.4575   12.1282 C.2     1  UNL1        0.0670
      7 C          65.1639   92.4700   11.4086 C.3     1  UNL1        0.1116
      8 C          66.2652   93.1832   12.1357 C.2     1  UNL1        0.1443
      9 O          67.1061   94.1957   11.4162 O.2     1  UNL1       -0.5071
     10 C          66.5255   92.8839   13.5823 C.2     1  UNL1        0.1698
     11 F          67.6267   93.5971   14.3094 F       1  UNL1       -0.2013
     12 C          65.6845   91.8714   14.3018 C.2     1  UNL1        0.0339
     13 C          64.5833   91.1582   13.5748 C.2     1  UNL1        0.0241
     14 H          66.9435   94.3827   10.5126 H       1  UNL1        0.2918
     15 O          63.5674   88.0384   15.5744 O.3     1  UNL1       -0.4454
     16 C          64.4837   87.2190   14.7146 C.3     1  UNL1        0.2087
     17 C          64.0587   85.8573   14.2510 C.3     1  UNL1        0.0445
     18 C          63.3288   85.7018   12.9499 C.3     1  UNL1        0.0210
     19 C          62.9038   84.3400   12.4863 C.3     1  UNL1        0.0722
     20 N          63.2089   83.1336   13.3240 N.3     1  UNL1       -0.2727
     21 C          63.9388   83.2891   14.6251 C.3     1  UNL1        0.0722
     22 C          64.3637   84.6509   15.0886 C.3     1  UNL1        0.0210
     23 C          63.4617   83.8593   13.6194 C.3     1  UNL1        0.0722
     24 C          63.8460   85.0907   14.0386 C.3     1  UNL1        0.0210
@<TRIPOS>BOND
     1     1     2    2
     2     2    15    1
     3    15    16    1
     4    16    17    1
     5    17    18    1
     6    18    19    1
     7    19    20    1
     8    20    21    1
     9    21    22    1
    10    20    23    1
    11    23    24    1
    12     2     3    1
    13     3     4    2
    14     4     5    1
    15     5     6    2
    16     6     7    1
    17     7     8    1
    18     8     9    1
    19     8    10    2
    20    10    11    1
    21    10    12    1
    22    12    13    2
    23    22    17    1
    24    13     3    1
    25    24    17    1
    26    13     6    1
    27     9    14    1
@<TRIPOS>MOLECULE
*****
 24 27 0 0 0
SMALL
GASTEIGER

@<TRIPOS>ATOM
      1 O          63.5098   91.3420   14.3451 O.2     1  UNL1       -0.2448
      2 C          63.7733   90.7509   12.9919 C.2     1  UNL1        0.3428
      3 C          63.4483   89.3108   12.7263 C.2     1  UNL1        0.0959
      4 C          63.8997   88.1392   13.5469 C.2     1  UNL1        0.1049
      5 N          63.3452   86.8938   12.9212 N.2     1  UNL1       -0.2475
      6 C          62.5510   87.2958   11.7138 C.2     1  UNL1        0.0670
      7 C          61.7781   86.4946   10.7085 C.3     1  UNL1        0.1116
      8 C          61.0688   87.1872    9.5827 C.2     1  UNL1        0.1443
      9 O          60.2959   86.3860    8.5775 O.2     1  UNL1       -0.5071
     10 C          61.1325   88.6810    9.4623 C.2     1  UNL1        0.1698
     11 F          60.4233   89.3736    8.3366 F       1  UNL1       -0.2013
     12 C          61.9055   89.4822   10.4677 C.2     1  UNL1        0.0339
     13 C          62.6147   88.7896   11.5934 C.2     1  UNL1        0.0241
     14 H          60.2561   85.4529    8.6527 H       1  UNL1        0.2918
     15 O          64.3618   91.5999   11.9044 O.3     1  UNL1       -0.4454
     16 C          65.5580   92.4594   12.1881 C.3     1  UNL1        0.2087
     17 C          66.3549   93.0335   11.0544 C.3     1  UNL1        0.0445
     18 C          66.0316   94.3998   10.5266 C.3     1  UNL1        0.0210
     19 C          66.8285   94.9739    9.3929 C.3     1  UNL1        0.0722
     20 N          67.9488   94.1815    8.7869 N.3     1  UNL1       -0.2727
     21 C          68.2721   92.8151    9.3146 C.3     1  UNL1        0.0722
     22 C          67.4751   92.2411   10.4483 C.3     1  UNL1        0.0210
     23 C          67.5401   93.8252    9.4065 C.3     1  UNL1        0.0722
     24 C          66.8196   93.3060   10.4316 C.3     1  UNL1        0.0210
@<TRIPOS>BOND
     1     1     2    2
     2     2    15    1
     3    15    16    1
     4    16    17    1
     5    17    18    1
     6    18    19    1
     7    19    20    1
     8    20    21    1
     9    21    22    1
    10    20    23    1
    11    23    24    1
    12     2     3    1
    13     3     4    2
    14     4     5    1
    15     5     6    2
    16     6     7    1
    17     7     8    1
    18     8     9    1
    19     8    10    2
    20    10    11    1
    21    10    12    1
    22    12    13    2
    23    22    17    1
    24    13     3    1
    25    24    17    1
    26    13     6    1
    27     9    14    1
@<TRIPOS>MOLECULE
*****
 24 27 0 0 0
SMALL
GASTEIGER

@<TRIPOS>ATOM
      1 O          60.2857   90.0215   10.0840 O.2     1  UNL1       -0.2448
      2 C          61.4066   89.6200   10.9964 C.2     1  UNL1        0.3428
      3 C          62.6035   90.5109   11.1510 C.2     1  UNL1        0.0959
      4 C          63.2458   91.3212   10.0643 C.2     1  UNL1        0.1049
      5 N          64.4074   92.0589   10.6612 N.2     1  UNL1       -0.2475
      6 C          64.4832   91.7045   12.1168 C.2     1  UNL1        0.0670
      7 C          65.4232   92.1294   13.2056 C.3     1  UNL1        0.1116
      8 C          65.2485   91.5975   14.5973 C.2     1  UNL1        0.1443
      9 O          66.1885   92.0224   15.6862 O.2     1  UNL1       -0.5071
     10 C          64.1335   90.6407   14.9000 C.2     1  UNL1        0.1698
     11 F          63.9587   90.1089   16.2916 F       1  UNL1       -0.2013
     12 C          63.1934   90.2159   13.8111 C.2     1  UNL1        0.0339
     13 C          63.3683   90.7477   12.4195 C.2     1  UNL1        0.0241
     14 H          66.8850   92.6200   15.4971 H       1  UNL1        0.2918
     15 O          61.3307   88.3277   11.7540 O.3     1  UNL1       -0.4454
     16 C          60.8001   87.0952   11.0836 C.3     1  UNL1        0.2087
     17 C          61.7488   86.1020   10.4806 C.3     1  UNL1        0.0445
     18 C          62.3267   85.0071   11.3274 C.3     1  UNL1        0.0210
     19 C          63.2754   84.0140   10.7243 C.3     1  UNL1        0.0722
     20 N          63.6461   84.1158    9.2744 N.3     1  UNL1       -0.2727
     21 C          63.0681   85.2107    8.4276 C.3     1  UNL1        0.0722
     22 C          62.1195   86.2038    9.0307 C.3     1  UNL1        0.0210
     23 C          63.1223   84.6831    9.5603 C.3     1  UNL1        0.0722
     24 C          62.2645   85.5812   10.1055 C.3     1  UNL1        0.0210
@<TRIPOS>BOND
     1     1     2    2
     2     2    15    1
     3    15    16    1
     4    16    17    1
     5    17    18    1
     6    18    19    1
     7    19    20    1
     8    20    21    1
     9    21    22    1
    10    20    23    1
    11    23    24    1
    12     2     3    1
    13     3     4    2
    14     4     5    1
    15     5     6    2
    16     6     7    1
    17     7     8    1
    18     8     9    1
    19     8    10    2
    20    10    11    1
    21    10    12    1
    22    12    13    2
    23    22    17    1
    24    13     3    1
    25    24    17    1
    26    13     6    1
    27     9    14    1
@<TRIPOS>MOLECULE
*****
 24 27 0 0 0
SMALL
GASTEIGER

@<TRIPOS>ATOM
      1 O          60.4834   87.5271   11.4752 O.2     1  UNL1       -0.2448
      2 C          61.4948   87.5242   10.3674 C.2     1  UNL1        0.3428
      3 C          62.2073   86.2548   10.0057 C.2     1  UNL1        0.0959
      4 C          62.6418   85.8493    8.6285 C.2     1  UNL1        0.1049
      5 N          63.3134   84.5119    8.7293 N.2     1  UNL1       -0.2475
      6 C          63.2941   84.0908   10.1689 C.2     1  UNL1        0.0670
      7 C          63.8107   82.8657   10.8633 C.3     1  UNL1        0.1116
      8 C          63.6436   82.7178   12.3467 C.2     1  UNL1        0.1443
      9 O          64.1602   81.4927   13.0411 O.2     1  UNL1       -0.5071
     10 C          62.9600   83.7949   13.1356 C.2     1  UNL1        0.1698
     11 F          62.7929   83.6471   14.6188 F       1  UNL1       -0.2013
     12 C          62.4434   85.0201   12.4410 C.2     1  UNL1        0.0339
     13 C          62.6105   85.1680   10.9578 C.2     1  UNL1        0.0241
     14 H          64.5872   80.8198   12.5483 H       1  UNL1        0.2918
     15 O          61.7936   88.7907    9.6214 O.3     1  UNL1       -0.4454
     16 C          61.6508   90.1170   10.3076 C.3     1  UNL1        0.2087
     17 C          62.8044   90.6929   11.0740 C.3     1  UNL1        0.0445
     18 C          63.7424   91.6549   10.4072 C.3     1  UNL1        0.0210
     19 C          64.8960   92.2308   11.1737 C.3     1  UNL1        0.0722
     20 N          65.1115   91.8447   12.6071 N.3     1  UNL1       -0.2727
     21 C          64.1735   90.8828   13.2739 C.3     1  UNL1        0.0722
     22 C          63.0199   90.3068   12.5074 C.3     1  UNL1        0.0210
     23 C          64.4655   91.5031   12.2279 C.3     1  UNL1        0.0722
     24 C          63.4224   90.9822   11.5348 C.3     1  UNL1        0.0210
@<TRIPOS>BOND
     1     1     2    2
     2     2    15    1
     3    15    16    1
     4    16    17    1
     5    17    18    1
     6    18    19    1
     7    19    20    1
     8    20    21    1
     9    21    22    1
    10    20    23    1
    11    23    24    1
    12     2     3    1
    13     3     4    2
    14     4     5    1
    15     5     6    2
    16     6     7    1
    17     7     8    1
    18     8     9    1
    19     8    10    2
    20    10    11    1
    21    10    12    1
    22    12    13    2
    23    22    17    1
    24    13     3    1
    25    24    17    1
    26    13     6    1
    27     9    14    1
