@<TRIPOS>MOLECULE
*****
 24 26 0 0 0
SMALL
GASTEIGER

@<TRIPOS>ATOM
      1 C          62.0840   86.4235   11.2872 C.3     1  UNL1        0.2165
      2 C          62.7921   85.4822   12.2159 C.3     1  UNL1        0.1749
      3 C          62.7174   84.0021   11.9841 C.3     1  UNL1        0.1027
      4 N          63.4256   83.0608   12.9128 N.3     1  UNL1       -0.2932
      5 C          64.2085   83.5997   14.0733 C.3     1  UNL1        0.1011
      6 C          64.2832   85.0798   14.3050 C.3     1  UNL1        0.1593
      7 O          63.5751   86.0211   13.3763 O.3     1  UNL1       -0.3493
      8 H          64.0770   82.5202   12.3438 H       1  UNL1        0.1234
      9 C          61.8745   86.0441    9.8511 C.ar    1  UNL1        0.0197
     10 C          62.9682   85.3550    9.0902 C.ar    1  UNL1       -0.0007
     11 C          62.7588   84.9756    7.6542 C.ar    1  UNL1       -0.0002
     12 C          61.4557   85.2854    6.9790 C.ar    1  UNL1       -0.0000
     13 C          60.3619   85.9745    7.7399 C.ar    1  UNL1       -0.0002
     14 C          60.5714   86.3538    9.1759 C.ar    1  UNL1       -0.0007
     15 O          61.5853   87.7440   11.7945 O.3     1  UNL1       -0.4691
     16 C          63.2014   89.5886   12.6521 C.ar    1  UNL1        0.1732
     17 C          63.9971   90.8359   12.4051 C.ar    1  UNL1        0.0514
     18 C          63.9725   91.4859   11.0535 C.ar    1  UNL1        0.0609
     19 CL         64.7683   92.7333   10.8065 Cl      1  UNL1       -0.0821
     20 C          63.1522   90.8887    9.9489 C.ar    1  UNL1        0.0147
     21 C          62.3564   89.6414   10.1959 C.ar    1  UNL1        0.0409
     22 C          62.3810   88.9914   11.5475 C.ar    1  UNL1        0.1727
     23 C          63.6460   89.7280   15.2081 C.3     1  UNL1        0.2526
     24 O          63.2260   88.9386   14.0037 O.3     1  UNL1       -0.4683
@<TRIPOS>BOND
     1    23    24    1
     2    24    16    1
     3    16    17   ar
     4    17    18   ar
     5    18    19    1
     6    18    20   ar
     7    20    21   ar
     8    21    22   ar
     9    22    15    1
    10     1    15    1
    11     1     9    1
    12     9    10   ar
    13    10    11   ar
    14    11    12   ar
    15    12    13   ar
    16    13    14   ar
    17     1     2    1
    18     2     3    1
    19     3     4    1
    20     4     5    1
    21     5     6    1
    22     6     7    1
    23    22    16   ar
    24    14     9   ar
    25     7     2    1
    26     4     8    1
@<TRIPOS>MOLECULE
*****
 24 26 0 0 0
SMALL
GASTEIGER

@<TRIPOS>ATOM
      1 C          61.9993   86.9540   10.6119 C.3     1  UNL1        0.2165
      2 C          61.1443   88.1474   10.9200 C.3     1  UNL1        0.1749
      3 C          61.3504   89.4310   10.1716 C.3     1  UNL1        0.1027
      4 N          60.4954   90.6243   10.4796 N.3     1  UNL1       -0.2932
      5 C          59.4343   90.5341   11.5361 C.3     1  UNL1        0.1011
      6 C          59.2283   89.2505   12.2844 C.3     1  UNL1        0.1593
      7 O          60.0833   88.0572   11.9764 O.3     1  UNL1       -0.3493
      8 H          60.0256   90.8819    9.6117 H       1  UNL1        0.1234
      9 C          61.8520   86.2448    9.2984 C.ar    1  UNL1        0.0197
     10 C          63.0461   85.6073    8.6521 C.ar    1  UNL1       -0.0007
     11 C          62.8988   84.8981    7.3386 C.ar    1  UNL1       -0.0002
     12 C          61.5573   84.8264    6.6714 C.ar    1  UNL1       -0.0000
     13 C          60.3632   85.4639    7.3176 C.ar    1  UNL1       -0.0002
     14 C          60.5105   86.1731    8.6311 C.ar    1  UNL1       -0.0007
     15 O          63.0017   86.4699   11.6173 O.3     1  UNL1       -0.4691
     16 C          63.0739   84.9007   13.6867 C.ar    1  UNL1        0.1732
     17 C          62.9355   83.5319   14.2845 C.ar    1  UNL1        0.0514
     18 C          62.5864   82.3637   13.4108 C.ar    1  UNL1        0.0609
     19 CL         62.4480   80.9949   14.0087 Cl      1  UNL1       -0.0821
     20 C          62.3757   82.5642   11.9393 C.ar    1  UNL1        0.0147
     21 C          62.5141   83.9329   11.3415 C.ar    1  UNL1        0.0409
     22 C          62.8632   85.1011   12.2152 C.ar    1  UNL1        0.1727
     23 C          63.7353   85.8533   16.0116 C.3     1  UNL1        0.2526
     24 O          63.4230   86.0689   14.5604 O.3     1  UNL1       -0.4683
@<TRIPOS>BOND
     1    23    24    1
     2    24    16    1
     3    16    17   ar
     4    17    18   ar
     5    18    19    1
     6    18    20   ar
     7    20    21   ar
     8    21    22   ar
     9    22    15    1
    10     1    15    1
    11     1     9    1
    12     9    10   ar
    13    10    11   ar
    14    11    12   ar
    15    12    13   ar
    16    13    14   ar
    17     1     2    1
    18     2     3    1
    19     3     4    1
    20     4     5    1
    21     5     6    1
    22     6     7    1
    23    22    16   ar
    24    14     9   ar
    25     7     2    1
    26     4     8    1
@<TRIPOS>MOLECULE
*****
 24 26 0 0 0
SMALL
GASTEIGER

@<TRIPOS>ATOM
      1 C          62.0456   86.4040   11.2338 C.3     1  UNL1        0.2165
      2 C          62.7502   85.4849   12.1872 C.3     1  UNL1        0.1749
      3 C          62.6726   83.9995   11.9927 C.3     1  UNL1        0.1027
      4 N          63.3773   83.0805   12.9460 N.3     1  UNL1       -0.2932
      5 C          64.1595   83.6468   14.0938 C.3     1  UNL1        0.1011
      6 C          64.2371   85.1321   14.2882 C.3     1  UNL1        0.1593
      7 O          63.5325   86.0511   13.3349 O.3     1  UNL1       -0.3493
      8 H          64.0284   82.5243   12.3918 H       1  UNL1        0.1234
      9 C          61.8658   86.0026    9.7997 C.ar    1  UNL1        0.0197
     10 C          60.5548   86.2441    9.1120 C.ar    1  UNL1       -0.0007
     11 C          60.3750   85.8428    7.6780 C.ar    1  UNL1       -0.0002
     12 C          61.5062   85.2000    6.9316 C.ar    1  UNL1       -0.0000
     13 C          62.8172   84.9585    7.6193 C.ar    1  UNL1       -0.0002
     14 C          62.9970   85.3598    9.0533 C.ar    1  UNL1       -0.0007
     15 O          61.5208   87.7243   11.7146 O.3     1  UNL1       -0.4691
     16 C          62.3528   89.8306   10.4412 C.ar    1  UNL1        0.1732
     17 C          63.2223   91.0512   10.3780 C.ar    1  UNL1        0.0514
     18 C          64.1291   91.3863   11.5249 C.ar    1  UNL1        0.0609
     19 CL         64.9986   92.6071   11.4616 Cl      1  UNL1       -0.0821
     20 C          64.1665   90.5008   12.7350 C.ar    1  UNL1        0.0147
     21 C          63.2971   89.2802   12.7982 C.ar    1  UNL1        0.0409
     22 C          62.3902   88.9450   11.6513 C.ar    1  UNL1        0.1727
     23 C          59.9667   89.7090    9.4207 C.3     1  UNL1        0.2526
     24 O          61.4460   89.4954    9.2943 O.3     1  UNL1       -0.4683
@<TRIPOS>BOND
     1    23    24    1
     2    24    16    1
     3    16    17   ar
     4    17    18   ar
     5    18    19    1
     6    18    20   ar
     7    20    21   ar
     8    21    22   ar
     9    22    15    1
    10     1    15    1
    11     1     9    1
    12     9    10   ar
    13    10    11   ar
    14    11    12   ar
    15    12    13   ar
    16    13    14   ar
    17     1     2    1
    18     2     3    1
    19     3     4    1
    20     4     5    1
    21     5     6    1
    22     6     7    1
    23    22    16   ar
    24    14     9   ar
    25     7     2    1
    26     4     8    1
@<TRIPOS>MOLECULE
*****
 24 26 0 0 0
SMALL
GASTEIGER

@<TRIPOS>ATOM
      1 C          61.5482   87.3292   10.7437 C.3     1  UNL1        0.2165
      2 C          60.6949   87.6806    9.5612 C.3     1  UNL1        0.1749
      3 C          60.6480   89.0951    9.0640 C.3     1  UNL1        0.1027
      4 N          59.7947   89.4465    7.8814 N.3     1  UNL1       -0.2932
      5 C          58.9884   88.3834    7.1960 C.3     1  UNL1        0.1011
      6 C          59.0354   86.9690    7.6932 C.3     1  UNL1        0.1593
      7 O          59.8886   86.6176    8.8757 O.3     1  UNL1       -0.3493
      8 H          60.4166   89.8443    7.1775 H       1  UNL1        0.1234
      9 C          62.3172   86.0414   10.7575 C.ar    1  UNL1        0.0197
     10 C          62.5988   85.3499   12.0585 C.ar    1  UNL1       -0.0007
     11 C          63.3678   84.0621   12.0723 C.ar    1  UNL1       -0.0002
     12 C          63.8551   83.4658   10.7851 C.ar    1  UNL1       -0.0000
     13 C          63.5734   84.1572    9.4841 C.ar    1  UNL1       -0.0002
     14 C          62.8045   85.4450    9.4703 C.ar    1  UNL1       -0.0007
     15 O          61.6325   88.2656   11.9125 O.3     1  UNL1       -0.4691
     16 C          63.4604   89.6785   13.1009 C.ar    1  UNL1        0.1732
     17 C          64.4407   90.8137   13.0833 C.ar    1  UNL1        0.0514
     18 C          64.5736   91.6710   11.8596 C.ar    1  UNL1        0.0609
     19 CL         65.5540   92.8062   11.8421 Cl      1  UNL1       -0.0821
     20 C          63.7260   91.3933   10.6536 C.ar    1  UNL1        0.0147
     21 C          62.7457   90.2581   10.6713 C.ar    1  UNL1        0.0409
     22 C          62.6129   89.4008   11.8949 C.ar    1  UNL1        0.1727
     23 C          64.3237   87.7312   14.5884 C.3     1  UNL1        0.2526
     24 O          63.3276   88.8212   14.3245 O.3     1  UNL1       -0.4683
@<TRIPOS>BOND
     1    23    24    1
     2    24    16    1
     3    16    17   ar
     4    17    18   ar
     5    18    19    1
     6    18    20   ar
     7    20    21   ar
     8    21    22   ar
     9    22    15    1
    10     1    15    1
    11     1     9    1
    12     9    10   ar
    13    10    11   ar
    14    11    12   ar
    15    12    13   ar
    16    13    14   ar
    17     1     2    1
    18     2     3    1
    19     3     4    1
    20     4     5    1
    21     5     6    1
    22     6     7    1
    23    22    16   ar
    24    14     9   ar
    25     7     2    1
    26     4     8    1
@<TRIPOS>MOLECULE
*****
 24 26 0 0 0
SMALL
GASTEIGER

@<TRIPOS>ATOM
      1 C          62.0791   86.3260   11.2575 C.3     1  UNL1        0.2165
      2 C          61.8550   85.9862    9.8138 C.3     1  UNL1        0.1749
      3 C          60.5410   86.3039    9.1637 C.3     1  UNL1        0.1027
      4 N          60.3168   85.9640    7.7200 N.3     1  UNL1       -0.2932
      5 C          61.4067   85.3064    6.9264 C.3     1  UNL1        0.1011
      6 C          62.7206   84.9887    7.5765 C.3     1  UNL1        0.1593
      7 O          62.9448   85.3286    9.0202 O.3     1  UNL1       -0.3493
      8 H          60.0914   86.8373    7.2435 H       1  UNL1        0.1234
      9 C          62.7867   85.3549   12.1555 C.ar    1  UNL1        0.0197
     10 C          62.6528   83.8798   11.9186 C.ar    1  UNL1       -0.0007
     11 C          63.3603   82.9087   12.8165 C.ar    1  UNL1       -0.0002
     12 C          64.2018   83.4127   13.9513 C.ar    1  UNL1       -0.0000
     13 C          64.3357   84.8878   14.1882 C.ar    1  UNL1       -0.0002
     14 C          63.6282   85.8589   13.2903 C.ar    1  UNL1       -0.0007
     15 O          61.5957   87.6369   11.8032 O.3     1  UNL1       -0.4691
     16 C          63.1591   89.5519   12.6024 C.ar    1  UNL1        0.1732
     17 C          63.9223   90.8109   12.3156 C.ar    1  UNL1        0.0514
     18 C          63.8853   91.4141   10.9426 C.ar    1  UNL1        0.0609
     19 CL         64.6486   92.6732   10.6558 Cl      1  UNL1       -0.0821
     20 C          63.0852   90.7582    9.8566 C.ar    1  UNL1        0.0147
     21 C          62.3220   89.4991   10.1435 C.ar    1  UNL1        0.0409
     22 C          62.3589   88.8960   11.5164 C.ar    1  UNL1        0.1727
     23 C          64.4411   89.0499   14.8057 C.3     1  UNL1        0.2526
     24 O          63.1960   88.9488   13.9753 O.3     1  UNL1       -0.4683
@<TRIPOS>BOND
     1    23    24    1
     2    24    16    1
     3    16    17   ar
     4    17    18   ar
     5    18    19    1
     6    18    20   ar
     7    20    21   ar
     8    21    22   ar
     9    22    15    1
    10     1    15    1
    11     1     9    1
    12     9    10   ar
    13    10    11   ar
    14    11    12   ar
    15    12    13   ar
    16    13    14   ar
    17     1     2    1
    18     2     3    1
    19     3     4    1
    20     4     5    1
    21     5     6    1
    22     6     7    1
    23    22    16   ar
    24    14     9   ar
    25     7     2    1
    26     4     8    1
@<TRIPOS>MOLECULE
*****
 24 26 0 0 0
SMALL
GASTEIGER

@<TRIPOS>ATOM
      1 C          62.0388   86.2502   11.2285 C.3     1  UNL1        0.2165
      2 C          61.8349   85.9074    9.7825 C.3     1  UNL1        0.1749
      3 C          62.9687   85.3437    8.9782 C.3     1  UNL1        0.1027
      4 N          62.7647   85.0008    7.5322 N.3     1  UNL1       -0.2932
      5 C          61.4269   85.2216    6.8906 C.3     1  UNL1        0.1011
      6 C          60.2932   85.7853    7.6948 C.3     1  UNL1        0.1593
      7 O          60.4972   86.1281    9.1408 O.3     1  UNL1       -0.3493
      8 H          62.9793   84.0087    7.4317 H       1  UNL1        0.1234
      9 C          62.7524   85.2901   12.1335 C.ar    1  UNL1        0.0197
     10 C          63.5662   85.8066   13.2829 C.ar    1  UNL1       -0.0007
     11 C          64.2798   84.8465   14.1879 C.ar    1  UNL1       -0.0002
     12 C          64.1796   83.3700   13.9435 C.ar    1  UNL1       -0.0000
     13 C          63.3658   82.8535   12.7941 C.ar    1  UNL1       -0.0002
     14 C          62.6523   83.8135   11.8891 C.ar    1  UNL1       -0.0007
     15 O          61.5292   87.5531   11.7694 O.3     1  UNL1       -0.4691
     16 C          62.2746   89.6040   10.3593 C.ar    1  UNL1        0.1732
     17 C          63.0968   90.8499   10.2126 C.ar    1  UNL1        0.0514
     18 C          63.9959   91.2910   11.3293 C.ar    1  UNL1        0.0609
     19 CL         64.8182   92.5370   11.1825 Cl      1  UNL1       -0.0821
     20 C          64.0728   90.4862   12.5927 C.ar    1  UNL1        0.0147
     21 C          63.2506   89.2402   12.7394 C.ar    1  UNL1        0.0409
     22 C          62.3515   88.7991   11.6227 C.ar    1  UNL1        0.1727
     23 C          59.9153   89.5044    9.2759 C.3     1  UNL1        0.2526
     24 O          61.3755   89.1629    9.2426 O.3     1  UNL1       -0.4683
@<TRIPOS>BOND
     1    23    24    1
     2    24    16    1
     3    16    17   ar
     4    17    18   ar
     5    18    19    1
     6    18    20   ar
     7    20    21   ar
     8    21    22   ar
     9    22    15    1
    10     1    15    1
    11     1     9    1
    12     9    10   ar
    13    10    11   ar
    14    11    12   ar
    15    12    13   ar
    16    13    14   ar
    17     1     2    1
    18     2     3    1
    19     3     4    1
    20     4     5    1
    21     5     6    1
    22     6     7    1
    23    22    16   ar
    24    14     9   ar
    25     7     2    1
    26     4     8    1
@<TRIPOS>MOLECULE
*****
 24 26 0 0 0
SMALL
GASTEIGER

@<TRIPOS>ATOM
      1 C          61.9437   86.9190   10.9368 C.3     1  UNL1        0.2165
      2 C          61.7212   86.3452    9.5689 C.3     1  UNL1        0.1749
      3 C          62.8515   85.6783    8.8423 C.3     1  UNL1        0.1027
      4 N          62.6289   85.1045    7.4744 N.3     1  UNL1       -0.2932
      5 C          61.2761   85.1976    6.8330 C.3     1  UNL1        0.1011
      6 C          60.1459   85.8645    7.5595 C.3     1  UNL1        0.1593
      7 O          60.3685   86.4383    8.9275 O.3     1  UNL1       -0.3493
      8 H          62.8609   84.1128    7.5298 H       1  UNL1        0.1234
      9 C          62.4658   88.3171   11.0878 C.ar    1  UNL1        0.0197
     10 C          63.1581   88.7265   12.3539 C.ar    1  UNL1       -0.0007
     11 C          63.6802   90.1245   12.5050 C.ar    1  UNL1       -0.0002
     12 C          63.5100   91.1132   11.3899 C.ar    1  UNL1       -0.0000
     13 C          62.8177   90.7038   10.1237 C.ar    1  UNL1       -0.0002
     14 C          62.2956   89.3058    9.9727 C.ar    1  UNL1       -0.0007
     15 O          61.6441   86.0948   12.1537 O.3     1  UNL1       -0.4691
     16 C          63.3769   84.8349   13.6235 C.ar    1  UNL1        0.1732
     17 C          64.1842   83.6043   13.9131 C.ar    1  UNL1        0.0514
     18 C          64.0660   82.4030   13.0227 C.ar    1  UNL1        0.0609
     19 CL         64.8733   81.1724   13.3125 Cl      1  UNL1       -0.0821
     20 C          63.1405   82.4322   11.8427 C.ar    1  UNL1        0.0147
     21 C          62.3333   83.6628   11.5530 C.ar    1  UNL1        0.0409
     22 C          62.4515   84.8642   12.4434 C.ar    1  UNL1        0.1727
     23 C          63.8321   85.8638   15.9653 C.3     1  UNL1        0.2526
     24 O          63.4951   86.0362   14.5139 O.3     1  UNL1       -0.4683
@<TRIPOS>BOND
     1    23    24    1
     2    24    16    1
     3    16    17   ar
     4    17    18   ar
     5    18    19    1
     6    18    20   ar
     7    20    21   ar
     8    21    22   ar
     9    22    15    1
    10     1    15    1
    11     1     9    1
    12     9    10   ar
    13    10    11   ar
    14    11    12   ar
    15    12    13   ar
    16    13    14   ar
    17     1     2    1
    18     2     3    1
    19     3     4    1
    20     4     5    1
    21     5     6    1
    22     6     7    1
    23    22    16   ar
    24    14     9   ar
    25     7     2    1
    26     4     8    1
@<TRIPOS>MOLECULE
*****
 24 26 0 0 0
SMALL
GASTEIGER

@<TRIPOS>ATOM
      1 C          63.8485   89.8895   12.8108 C.3     1  UNL1        0.2165
      2 C          62.5247   89.9857   12.1121 C.3     1  UNL1        0.1749
      3 C          62.4689   90.3486   10.6577 C.3     1  UNL1        0.1027
      4 N          61.1450   90.4448    9.9589 N.3     1  UNL1       -0.2932
      5 C          59.8770   90.1780   10.7146 C.3     1  UNL1        0.1011
      6 C          59.9328   89.8152   12.1690 C.3     1  UNL1        0.1593
      7 O          61.2567   89.7190   12.8677 O.3     1  UNL1       -0.3493
      8 H          61.1717   89.7810    9.1849 H       1  UNL1        0.1234
      9 C          64.7036   91.1117   12.9689 C.ar    1  UNL1        0.0197
     10 C          64.9315   92.0239   11.8002 C.ar    1  UNL1       -0.0007
     11 C          65.7866   93.2461   11.9583 C.ar    1  UNL1       -0.0002
     12 C          66.4138   93.5561   13.2851 C.ar    1  UNL1       -0.0000
     13 C          66.1859   92.6439   14.4538 C.ar    1  UNL1       -0.0002
     14 C          65.3308   91.4217   14.2958 C.ar    1  UNL1       -0.0007
     15 O          64.3172   88.5711   13.3514 O.3     1  UNL1       -0.4691
     16 C          63.9309   86.6718   15.0816 C.ar    1  UNL1        0.1732
     17 C          63.5039   86.2275   16.4491 C.ar    1  UNL1        0.0514
     18 C          63.0363   87.2381   17.4541 C.ar    1  UNL1        0.0609
     19 CL         62.6093   86.7937   18.8217 Cl      1  UNL1       -0.0821
     20 C          62.9957   88.6930   17.0915 C.ar    1  UNL1        0.0147
     21 C          63.4226   89.1374   15.7240 C.ar    1  UNL1        0.0409
     22 C          63.8902   88.1267   14.7190 C.ar    1  UNL1        0.1727
     23 C          63.4246   85.0643   13.1043 C.3     1  UNL1        0.2526
     24 O          64.3985   85.6612   14.0766 O.3     1  UNL1       -0.4683
@<TRIPOS>BOND
     1    23    24    1
     2    24    16    1
     3    16    17   ar
     4    17    18   ar
     5    18    19    1
     6    18    20   ar
     7    20    21   ar
     8    21    22   ar
     9    22    15    1
    10     1    15    1
    11     1     9    1
    12     9    10   ar
    13    10    11   ar
    14    11    12   ar
    15    12    13   ar
    16    13    14   ar
    17     1     2    1
    18     2     3    1
    19     3     4    1
    20     4     5    1
    21     5     6    1
    22     6     7    1
    23    22    16   ar
    24    14     9   ar
    25     7     2    1
    26     4     8    1
@<TRIPOS>MOLECULE
*****
 24 26 0 0 0
SMALL
GASTEIGER

@<TRIPOS>ATOM
      1 C          63.0538   86.7208   11.8168 C.3     1  UNL1        0.2165
      2 C          63.1954   88.0312   12.5330 C.3     1  UNL1        0.1749
      3 C          62.6576   89.2867   11.9128 C.3     1  UNL1        0.1027
      4 N          62.7992   90.5971   12.6289 N.3     1  UNL1       -0.2932
      5 C          63.4784   90.6519   13.9652 C.3     1  UNL1        0.1011
      6 C          64.0161   89.3965   14.5854 C.3     1  UNL1        0.1593
      7 O          63.8745   88.0861   13.8692 O.3     1  UNL1       -0.3493
      8 H          61.8564   90.9629   12.7625 H       1  UNL1        0.1234
      9 C          62.1097   86.5977   10.6577 C.ar    1  UNL1        0.0197
     10 C          62.5539   85.9153    9.3979 C.ar    1  UNL1       -0.0007
     11 C          61.6099   85.7922    8.2387 C.ar    1  UNL1       -0.0002
     12 C          60.2217   86.3515    8.3394 C.ar    1  UNL1       -0.0000
     13 C          59.7776   87.0339    9.5991 C.ar    1  UNL1       -0.0002
     14 C          60.7216   87.1570   10.7583 C.ar    1  UNL1       -0.0007
     15 O          63.8563   85.5335   12.2598 O.3     1  UNL1       -0.4691
     16 C          62.6371   84.2091   14.1332 C.ar    1  UNL1        0.1732
     17 C          61.9409   82.9663   14.6030 C.ar    1  UNL1        0.0514
     18 C          61.7678   81.8051   13.6694 C.ar    1  UNL1        0.0609
     19 CL         61.0716   80.5623   14.1394 Cl      1  UNL1       -0.0821
     20 C          62.2908   81.8867   12.2660 C.ar    1  UNL1        0.0147
     21 C          62.9870   83.1294   11.7962 C.ar    1  UNL1        0.0409
     22 C          63.1601   84.2907   12.7297 C.ar    1  UNL1        0.1727
     23 C          63.9698   85.4018   16.0177 C.3     1  UNL1        0.2526
     24 O          62.8102   85.3703   15.0668 O.3     1  UNL1       -0.4683
@<TRIPOS>BOND
     1    23    24    1
     2    24    16    1
     3    16    17   ar
     4    17    18   ar
     5    18    19    1
     6    18    20   ar
     7    20    21   ar
     8    21    22   ar
     9    22    15    1
    10     1    15    1
    11     1     9    1
    12     9    10   ar
    13    10    11   ar
    14    11    12   ar
    15    12    13   ar
    16    13    14   ar
    17     1     2    1
    18     2     3    1
    19     3     4    1
    20     4     5    1
    21     5     6    1
    22     6     7    1
    23    22    16   ar
    24    14     9   ar
    25     7     2    1
    26     4     8    1
