@<TRIPOS>MOLECULE
*****
 56 62 0 0 0
SMALL
GASTEIGER

@<TRIPOS>ATOM
      1 C          60.8191   88.6144    9.6133 C.2     1  UNL1        0.1699
      2 N          59.9701   89.4977    8.7479 N.2     1  UNL1       -0.0640
      3 C          59.4572   88.9902    7.4330 C.cat   1  UNL1        0.4643
      4 N          59.7932   87.5991    6.9833 N.2     1  UNL1        0.0296
      5 C          60.6422   86.7158    7.8486 C.2     1  UNL1        0.3686
      6 N          61.1343   85.3100    7.6705 N.2     1  UNL1       -0.0340
      7 C          61.9515   84.9489    8.8754 C.2     1  UNL1        0.2321
      8 C          61.9643   86.1314    9.7982 C.2     1  UNL1        0.0440
      9 C          61.1551   87.2234    9.1636 C.3     1  UNL1        0.1961
     10 C          62.8242   89.8632   12.6931 C.ar    1  UNL1        0.1559
     11 C          62.7707   89.3559   11.2826 C.ar    1  UNL1        0.0469
     12 C          61.3321   89.1220   10.9283 C.ar    1  UNL1        0.1105
     13 N          60.4963   89.4848   12.1199 N.ar    1  UNL1       -0.2461
     14 C          59.0010   89.4037   12.2057 C.3     1  UNL1        0.1538
     15 N          61.4185   89.9430   13.2106 N.ar    1  UNL1       -0.1645
     16 N          64.5650   91.6413   13.4399 N.am    1  UNL1       -0.2796
     17 C          64.0653   90.2271   13.4528 C.2     1  UNL1        0.2690
     18 O          64.8068   89.1767   14.2253 O.2     1  UNL1       -0.2681
     19 H          64.0784   92.3308   12.9329 H       1  UNL1        0.1552
     20 C          67.1278   92.0653   13.4926 C.ar    1  UNL1       -0.0090
     21 C          68.3689   92.4292   14.2524 C.ar    1  UNL1       -0.0031
     22 C          68.2884   92.7328   15.7191 C.ar    1  UNL1       -0.0006
     23 C          66.9669   92.6727   16.4261 C.ar    1  UNL1       -0.0031
     24 C          65.7257   92.3088   15.6664 C.ar    1  UNL1       -0.0090
     25 C          65.8062   92.0052   14.1996 C.ar    1  UNL1        0.0425
     26 C          66.9460   92.8436   11.0205 C.3     1  UNL1        0.0051
     27 C          67.2081   91.7617   12.0258 C.3     1  UNL1        0.0276
     28 C          64.4042   92.2486   16.3734 C.3     1  UNL1        0.0276
     29 C          63.8403   90.9251   16.7979 C.3     1  UNL1        0.0051
     30 N          58.6081   89.8736    6.5676 N.pl3   1  UNL1       -0.1896
     31 H          57.6317   89.8932    6.6923 H       1  UNL1        0.2524
     32 C          59.2468   90.7272    5.5124 C.ar    1  UNL1        0.1435
     33 C          60.6856   90.5150    5.1454 C.ar    1  UNL1        0.0356
     34 C          61.3242   91.3686    4.0902 C.ar    1  UNL1        0.0174
     35 C          60.5240   92.4343    3.4018 C.ar    1  UNL1        0.0511
     36 C          59.0852   92.6465    3.7688 C.ar    1  UNL1        0.0541
     37 C          58.4465   91.7930    4.8241 C.ar    1  UNL1        0.1684
     38 N          61.1626   93.2879    2.3465 N.pl3   1  UNL1       -0.3072
     39 C          60.5724   94.6237    2.0039 C.3     1  UNL1        0.0937
     40 C          61.2109   95.4774    0.9486 C.3     1  UNL1        0.0573
     41 C          62.4396   94.9952    0.2361 C.3     1  UNL1        0.1596
     42 O          62.2537   96.3238   -0.4350 O.3     1  UNL1       -0.3780
     43 C          63.0298   93.6595    0.5787 C.3     1  UNL1        0.0573
     44 C          62.3913   92.8058    1.6340 C.3     1  UNL1        0.0937
     45 H          61.4729   96.7658   -0.0664 H       1  UNL1        0.2109
     46 C          63.6038   94.9745   -0.7096 C.2     1  UNL1        0.2499
     47 O          64.9931   95.2068   -0.1940 O.2     1  UNL1       -0.2724
     48 N          63.3785   94.7215   -2.1709 N.am    1  UNL1       -0.2748
     49 C          61.9892   94.4893   -2.6865 C.3     1  UNL1        0.1108
     50 C          61.7641   94.2363   -4.1478 C.3     1  UNL1        0.0939
     51 N          62.9282   94.2156   -5.0935 N.3     1  UNL1       -0.2686
     52 C          62.7031   93.9627   -6.5547 C.3     1  UNL1        0.0897
     53 C          64.3176   94.4479   -4.5779 C.3     1  UNL1        0.0939
     54 C          64.5427   94.7008   -3.1166 C.3     1  UNL1        0.1108
     55 O          57.0077   92.0052    5.1910 O.3     1  UNL1       -0.4687
     56 C          56.0189   90.8895    5.0252 C.3     1  UNL1        0.2526
@<TRIPOS>BOND
     1    26    27    1
     2    27    20    1
     3    20    21   ar
     4    21    22   ar
     5    22    23   ar
     6    23    24   ar
     7    24    28    1
     8    28    29    1
     9    24    25   ar
    10    25    16    1
    11    16    17   am
    12    17    18    2
    13    17    10    1
    14    10    11   ar
    15    11    12   ar
    16    12     1    1
    17     1     2    2
    18     2     3    1
    19     3    30    1
    20    30    32    1
    21    32    33   ar
    22    33    34   ar
    23    34    35   ar
    24    35    38    1
    25    38    39    1
    26    39    40    1
    27    40    41    1
    28    41    42    1
    29    41    46    1
    30    46    47    2
    31    46    48   am
    32    48    49    1
    33    49    50    1
    34    50    51    1
    35    51    52    1
    36    51    53    1
    37    53    54    1
    38    41    43    1
    39    43    44    1
    40    35    36   ar
    41    36    37   ar
    42    37    55    1
    43    55    56    1
    44     3     4    2
    45     4     5    1
    46     5     6    2
    47     6     7    1
    48     7     8    2
    49     8     9    1
    50    12    13   ar
    51    13    14    1
    52    13    15   ar
    53    25    20   ar
    54    15    10   ar
    55     9     1    1
    56    37    32   ar
    57     9     5    1
    58    44    38    1
    59    54    48    1
    60    16    19    1
    61    30    31    1
    62    42    45    1
@<TRIPOS>MOLECULE
*****
 56 62 0 0 0
SMALL
GASTEIGER

@<TRIPOS>ATOM
      1 C          60.8736   88.6199    9.6165 C.2     1  UNL1        0.1699
      2 N          60.0223   89.4925    8.7425 N.2     1  UNL1       -0.0640
      3 C          59.5202   88.9747    7.4274 C.cat   1  UNL1        0.4643
      4 N          59.8693   87.5841    6.9861 N.2     1  UNL1        0.0296
      5 C          60.7206   86.7116    7.8601 C.2     1  UNL1        0.3686
      6 N          61.2246   85.3089    7.6913 N.2     1  UNL1       -0.0340
      7 C          62.0382   84.9599    8.9022 C.2     1  UNL1        0.2321
      8 C          62.0371   86.1468    9.8193 C.2     1  UNL1        0.0440
      9 C          61.2228   87.2295    9.1753 C.3     1  UNL1        0.1961
     10 C          62.8544   89.8735   12.7100 C.ar    1  UNL1        0.1559
     11 C          62.8132   89.3431   11.3076 C.ar    1  UNL1        0.0469
     12 C          61.3757   89.1378   10.9316 C.ar    1  UNL1        0.1105
     13 N          60.5284   89.5414   12.1018 N.ar    1  UNL1       -0.2461
     14 C          59.0303   89.4979   12.1622 C.3     1  UNL1        0.1538
     15 N          61.4423   89.9961   13.2009 N.ar    1  UNL1       -0.1645
     16 N          64.6007   91.6310   13.4921 N.am    1  UNL1       -0.2796
     17 C          64.0906   90.2204   13.4855 C.2     1  UNL1        0.2690
     18 O          64.8168   89.1568   14.2545 O.2     1  UNL1       -0.2681
     19 H          64.1240   92.3291   12.9874 H       1  UNL1        0.1552
     20 C          65.7435   92.2724   15.7354 C.ar    1  UNL1       -0.0090
     21 C          66.9798   92.6193   16.5109 C.ar    1  UNL1       -0.0031
     22 C          68.3093   92.6718   15.8185 C.ar    1  UNL1       -0.0006
     23 C          68.4027   92.3774   14.3506 C.ar    1  UNL1       -0.0031
     24 C          67.1665   92.0305   13.5751 C.ar    1  UNL1       -0.0090
     25 C          65.8369   91.9780   14.2676 C.ar    1  UNL1        0.0425
     26 C          63.8019   90.8956   16.7770 C.3     1  UNL1        0.0051
     27 C          64.4139   92.2198   16.4278 C.3     1  UNL1        0.0276
     28 C          67.2599   91.7361   12.1073 C.3     1  UNL1        0.0276
     29 C          66.8701   92.7829   11.1061 C.3     1  UNL1        0.0051
     30 N          58.6688   89.8473    6.5534 N.pl3   1  UNL1       -0.1896
     31 H          57.6918   89.8607    6.6736 H       1  UNL1        0.2524
     32 C          59.3061   90.6996    5.4963 C.ar    1  UNL1        0.1435
     33 C          60.7348   90.4649    5.1042 C.ar    1  UNL1        0.0356
     34 C          61.3722   91.3172    4.0471 C.ar    1  UNL1        0.0174
     35 C          60.5808   92.4041    3.3821 C.ar    1  UNL1        0.0511
     36 C          59.1521   92.6388    3.7742 C.ar    1  UNL1        0.0541
     37 C          58.5148   91.7865    4.8313 C.ar    1  UNL1        0.1684
     38 N          61.2181   93.2565    2.3250 N.pl3   1  UNL1       -0.3072
     39 C          60.6624   94.6165    2.0223 C.3     1  UNL1        0.0937
     40 C          61.2996   95.4688    0.9653 C.3     1  UNL1        0.0573
     41 C          62.4925   94.9612    0.2109 C.3     1  UNL1        0.1596
     42 O          62.3317   96.3072   -0.4313 O.3     1  UNL1       -0.3780
     43 C          63.0482   93.6012    0.5135 C.3     1  UNL1        0.0573
     44 C          62.4110   92.7488    1.5706 C.3     1  UNL1        0.0937
     45 H          61.5758   96.7670   -0.0336 H       1  UNL1        0.2109
     46 C          63.6296   94.9210   -0.7666 C.2     1  UNL1        0.2499
     47 O          65.0367   95.1262   -0.2891 O.2     1  UNL1       -0.2724
     48 N          63.3596   94.6757   -2.2216 N.am    1  UNL1       -0.2748
     49 C          61.9525   94.4706   -2.6991 C.3     1  UNL1        0.1108
     50 C          61.6826   94.2253   -4.1541 C.3     1  UNL1        0.0939
     51 N          62.8196   94.1852   -5.1315 N.3     1  UNL1       -0.2686
     52 C          62.5497   93.9399   -6.5864 C.3     1  UNL1        0.0897
     53 C          64.2268   94.3903   -4.6540 C.3     1  UNL1        0.0939
     54 C          64.4967   94.6356   -3.1990 C.3     1  UNL1        0.1108
     55 O          57.0861   92.0212    5.2233 O.3     1  UNL1       -0.4687
     56 C          56.0470   90.9800    4.9298 C.3     1  UNL1        0.2526
@<TRIPOS>BOND
     1    26    27    1
     2    27    20    1
     3    20    21   ar
     4    21    22   ar
     5    22    23   ar
     6    23    24   ar
     7    24    28    1
     8    28    29    1
     9    24    25   ar
    10    25    16    1
    11    16    17   am
    12    17    18    2
    13    17    10    1
    14    10    11   ar
    15    11    12   ar
    16    12     1    1
    17     1     2    2
    18     2     3    1
    19     3    30    1
    20    30    32    1
    21    32    33   ar
    22    33    34   ar
    23    34    35   ar
    24    35    38    1
    25    38    39    1
    26    39    40    1
    27    40    41    1
    28    41    42    1
    29    41    46    1
    30    46    47    2
    31    46    48   am
    32    48    49    1
    33    49    50    1
    34    50    51    1
    35    51    52    1
    36    51    53    1
    37    53    54    1
    38    41    43    1
    39    43    44    1
    40    35    36   ar
    41    36    37   ar
    42    37    55    1
    43    55    56    1
    44     3     4    2
    45     4     5    1
    46     5     6    2
    47     6     7    1
    48     7     8    2
    49     8     9    1
    50    12    13   ar
    51    13    14    1
    52    13    15   ar
    53    25    20   ar
    54    15    10   ar
    55     9     1    1
    56    37    32   ar
    57     9     5    1
    58    44    38    1
    59    54    48    1
    60    16    19    1
    61    30    31    1
    62    42    45    1
