@<TRIPOS>MOLECULE
*****
 25 27 0 0 0
SMALL
GASTEIGER

@<TRIPOS>ATOM
      1 C          63.4508   90.3411   11.9626 C.ar    1  UNL1        0.0536
      2 C          62.5394   90.5005   10.7820 C.ar    1  UNL1        0.0076
      3 C          61.7022   89.3451   10.3194 C.ar    1  UNL1        0.0376
      4 C          61.7764   88.0302   11.0374 C.ar    1  UNL1        0.1453
      5 C          62.6878   87.8708   12.2181 C.ar    1  UNL1        0.0376
      6 C          63.5250   89.0263   12.6807 C.ar    1  UNL1        0.0076
      7 O          64.4074   91.7973   13.8899 O.2     1  UNL1       -0.2701
      8 C          64.2880   91.4965   12.4252 C.2     1  UNL1        0.2461
      9 N          65.0059   92.3513   11.4232 N.am    1  UNL1       -0.2969
     10 H          64.9275   92.1539   10.4618 H       1  UNL1        0.1501
     11 C          65.8431   93.5067   11.8858 C.3     1  UNL1        0.1167
     12 C          66.4509   94.4417   10.8825 C.ar    1  UNL1        0.0005
     13 C          66.2391   95.9210   11.0114 C.ar    1  UNL1        0.0181
     14 C          66.8469   96.8558   10.0081 C.ar    1  UNL1        0.0986
     15 N          67.6667   96.3113    8.8760 N.ar    1  UNL1       -0.2423
     16 C          67.8785   94.8320    8.7472 C.ar    1  UNL1        0.0986
     17 C          67.2707   93.8972    9.7504 C.ar    1  UNL1        0.0181
     18 O          60.9392   86.8748   10.5748 O.3     1  UNL1       -0.4535
     19 C          61.2609   86.1857    9.2819 C.ar    1  UNL1        0.1454
     20 C          60.2399   86.1361    8.1841 C.ar    1  UNL1        0.0398
     21 C          60.5615   85.4471    6.8912 C.ar    1  UNL1        0.0328
     22 C          61.9042   84.8075    6.6960 C.ar    1  UNL1        0.1403
     23 F          62.2259   84.1184    5.4030 F       1  UNL1       -0.2042
     24 C          62.9252   84.8571    7.7937 C.ar    1  UNL1        0.0328
     25 C          62.6035   85.5462    9.0866 C.ar    1  UNL1        0.0398
@<TRIPOS>BOND
     1     7     8    2
     2     8     9   am
     3     9    11    1
     4    11    12    1
     5    12    13   ar
     6    13    14   ar
     7    14    15   ar
     8    15    16   ar
     9    16    17   ar
    10     8     1    1
    11     1     2   ar
    12     2     3   ar
    13     3     4   ar
    14     4    18    1
    15    18    19    1
    16    19    20   ar
    17    20    21   ar
    18    21    22   ar
    19    22    23    1
    20    22    24   ar
    21    24    25   ar
    22     4     5   ar
    23     5     6   ar
    24    17    12   ar
    25     6     1   ar
    26    25    19   ar
    27     9    10    1
@<TRIPOS>MOLECULE
*****
 25 27 0 0 0
SMALL
GASTEIGER

@<TRIPOS>ATOM
      1 C          63.0919   89.1700   12.1011 C.ar    1  UNL1        0.0536
      2 C          63.1199   90.2263   11.0364 C.ar    1  UNL1        0.0076
      3 C          63.8843   91.4972   11.2608 C.ar    1  UNL1        0.0376
      4 C          64.6208   91.7119   12.5498 C.ar    1  UNL1        0.1453
      5 C          64.5929   90.6556   13.6145 C.ar    1  UNL1        0.0376
      6 C          63.8284   89.3846   13.3900 C.ar    1  UNL1        0.0076
      7 O          60.8965   87.9534   11.4303 O.2     1  UNL1       -0.2701
      8 C          62.3275   87.8991   11.8767 C.2     1  UNL1        0.2461
      9 N          62.9941   86.5737   12.0988 N.am    1  UNL1       -0.2969
     10 H          63.9333   86.5381   12.3917 H       1  UNL1        0.1501
     11 C          62.2297   85.3028   11.8744 C.3     1  UNL1        0.1167
     12 C          62.5676   84.0746   12.6664 C.ar    1  UNL1        0.0005
     13 C          62.8481   84.1834   14.1359 C.ar    1  UNL1        0.0181
     14 C          63.1859   82.9551   14.9279 C.ar    1  UNL1        0.0986
     15 N          63.2434   81.6181   14.2504 N.ar    1  UNL1       -0.2423
     16 C          62.9629   81.5093   12.7809 C.ar    1  UNL1        0.0986
     17 C          62.6251   82.7375   11.9889 C.ar    1  UNL1        0.0181
     18 O          65.3852   92.9828   12.7742 O.3     1  UNL1       -0.4535
     19 C          66.0620   93.6643   11.6220 C.ar    1  UNL1        0.1454
     20 C          66.8802   92.8637   10.6527 C.ar    1  UNL1        0.0398
     21 C          67.5570   93.5452    9.5005 C.ar    1  UNL1        0.0328
     22 C          67.4158   95.0273    9.3177 C.ar    1  UNL1        0.1403
     23 F          68.0926   95.7087    8.1656 F       1  UNL1       -0.2042
     24 C          66.5977   95.8279   10.2871 C.ar    1  UNL1        0.0328
     25 C          65.9208   95.1464   11.4393 C.ar    1  UNL1        0.0398
@<TRIPOS>BOND
     1     7     8    2
     2     8     9   am
     3     9    11    1
     4    11    12    1
     5    12    13   ar
     6    13    14   ar
     7    14    15   ar
     8    15    16   ar
     9    16    17   ar
    10     8     1    1
    11     1     2   ar
    12     2     3   ar
    13     3     4   ar
    14     4    18    1
    15    18    19    1
    16    19    20   ar
    17    20    21   ar
    18    21    22   ar
    19    22    23    1
    20    22    24   ar
    21    24    25   ar
    22     4     5   ar
    23     5     6   ar
    24    17    12   ar
    25     6     1   ar
    26    25    19   ar
    27     9    10    1
@<TRIPOS>MOLECULE
*****
 25 27 0 0 0
SMALL
GASTEIGER

@<TRIPOS>ATOM
      1 C          62.9042   88.3585   11.8931 C.ar    1  UNL1        0.0536
      2 C          63.6449   88.4866   13.1912 C.ar    1  UNL1        0.0076
      3 C          64.2396   89.8051   13.5884 C.ar    1  UNL1        0.0376
      4 C          64.0938   90.9955   12.6875 C.ar    1  UNL1        0.1453
      5 C          63.3532   90.8675   11.3894 C.ar    1  UNL1        0.0376
      6 C          62.7584   89.5489   10.9922 C.ar    1  UNL1        0.0076
      7 O          60.9474   86.9899   10.8696 O.2     1  UNL1       -0.2701
      8 C          62.3095   87.0400   11.4959 C.2     1  UNL1        0.2461
      9 N          63.0768   85.7716   11.7249 N.am    1  UNL1       -0.2969
     10 H          63.9708   85.8045   12.1360 H       1  UNL1        0.1501
     11 C          62.4820   84.4531   11.3277 C.3     1  UNL1        0.1167
     12 C          62.5919   83.2732   12.2474 C.ar    1  UNL1        0.0005
     13 C          62.7450   81.8927   11.6812 C.ar    1  UNL1        0.0181
     14 C          62.8549   80.7128   12.6009 C.ar    1  UNL1        0.0986
     15 N          62.8116   80.9135   14.0868 N.ar    1  UNL1       -0.2423
     16 C          62.6585   82.2941   14.6530 C.ar    1  UNL1        0.0986
     17 C          62.5486   83.4739   13.7333 C.ar    1  UNL1        0.0181
     18 O          64.6886   92.3140   13.0847 O.3     1  UNL1       -0.4535
     19 C          65.9017   92.3545   13.9659 C.ar    1  UNL1        0.1454
     20 C          65.7544   92.6318   15.4326 C.ar    1  UNL1        0.0398
     21 C          66.9676   92.6723   16.3139 C.ar    1  UNL1        0.0328
     22 C          68.3281   92.4355   15.7283 C.ar    1  UNL1        0.1403
     23 F          69.5413   92.4760   16.6095 F       1  UNL1       -0.2042
     24 C          68.4755   92.1583   14.2616 C.ar    1  UNL1        0.0328
     25 C          67.2623   92.1178   13.3804 C.ar    1  UNL1        0.0398
@<TRIPOS>BOND
     1     7     8    2
     2     8     9   am
     3     9    11    1
     4    11    12    1
     5    12    13   ar
     6    13    14   ar
     7    14    15   ar
     8    15    16   ar
     9    16    17   ar
    10     8     1    1
    11     1     2   ar
    12     2     3   ar
    13     3     4   ar
    14     4    18    1
    15    18    19    1
    16    19    20   ar
    17    20    21   ar
    18    21    22   ar
    19    22    23    1
    20    22    24   ar
    21    24    25   ar
    22     4     5   ar
    23     5     6   ar
    24    17    12   ar
    25     6     1   ar
    26    25    19   ar
    27     9    10    1
@<TRIPOS>MOLECULE
*****
 25 27 0 0 0
SMALL
GASTEIGER

@<TRIPOS>ATOM
      1 C          62.8954   88.2313   11.9131 C.ar    1  UNL1        0.0536
      2 C          62.6801   89.4391   11.0501 C.ar    1  UNL1        0.0076
      3 C          63.2328   90.7689   11.4697 C.ar    1  UNL1        0.0376
      4 C          64.0008   90.8909   12.7525 C.ar    1  UNL1        0.1453
      5 C          64.2160   89.6831   13.6155 C.ar    1  UNL1        0.0376
      6 C          63.6633   88.3533   13.1958 C.ar    1  UNL1        0.0076
      7 O          60.9820   86.8185   10.8677 O.2     1  UNL1       -0.2701
      8 C          62.3427   86.9015   11.4934 C.2     1  UNL1        0.2461
      9 N          63.1508   85.6546   11.6995 N.am    1  UNL1       -0.2969
     10 H          64.0439   85.7091   12.1102 H       1  UNL1        0.1501
     11 C          62.5981   84.3248   11.2798 C.3     1  UNL1        0.1167
     12 C          62.6234   83.1673   12.2336 C.ar    1  UNL1        0.0005
     13 C          62.5572   83.4121   13.7120 C.ar    1  UNL1        0.0181
     14 C          62.5825   82.2546   14.6657 C.ar    1  UNL1        0.0986
     15 N          62.6738   80.8524   14.1410 N.ar    1  UNL1       -0.2423
     16 C          62.7400   80.6076   12.6626 C.ar    1  UNL1        0.0986
     17 C          62.7147   81.7650   11.7089 C.ar    1  UNL1        0.0181
     18 O          64.5534   92.2207   13.1722 O.3     1  UNL1       -0.4535
     19 C          65.7944   92.2859   14.0122 C.ar    1  UNL1        0.1454
     20 C          67.1389   92.0749   13.3815 C.ar    1  UNL1        0.0398
     21 C          68.3799   92.1400   14.2215 C.ar    1  UNL1        0.0328
     22 C          68.2765   92.4161   15.6922 C.ar    1  UNL1        0.1403
     23 F          69.5175   92.4813   16.5322 F       1  UNL1       -0.2042
     24 C          66.9320   92.6271   16.3229 C.ar    1  UNL1        0.0328
     25 C          65.6910   92.5620   15.4829 C.ar    1  UNL1        0.0398
@<TRIPOS>BOND
     1     7     8    2
     2     8     9   am
     3     9    11    1
     4    11    12    1
     5    12    13   ar
     6    13    14   ar
     7    14    15   ar
     8    15    16   ar
     9    16    17   ar
    10     8     1    1
    11     1     2   ar
    12     2     3   ar
    13     3     4   ar
    14     4    18    1
    15    18    19    1
    16    19    20   ar
    17    20    21   ar
    18    21    22   ar
    19    22    23    1
    20    22    24   ar
    21    24    25   ar
    22     4     5   ar
    23     5     6   ar
    24    17    12   ar
    25     6     1   ar
    26    25    19   ar
    27     9    10    1
@<TRIPOS>MOLECULE
*****
 25 27 0 0 0
SMALL
GASTEIGER

@<TRIPOS>ATOM
      1 C          63.8641   88.2457   15.6490 C.ar    1  UNL1        0.0536
      2 C          64.3928   87.3585   14.5612 C.ar    1  UNL1        0.0076
      3 C          64.1914   85.8742   14.6396 C.ar    1  UNL1        0.0376
      4 C          63.4612   85.2770   15.8060 C.ar    1  UNL1        0.1453
      5 C          62.9325   86.1642   16.8938 C.ar    1  UNL1        0.0376
      6 C          63.1340   87.6486   16.8153 C.ar    1  UNL1        0.0076
      7 O          63.2448   90.6448   16.4305 O.2     1  UNL1       -0.2701
      8 C          64.0656   89.7300   15.5705 C.2     1  UNL1        0.2461
      9 N          65.0878   90.2996   14.6321 N.am    1  UNL1       -0.2969
     10 H          65.6265   89.6992   14.0677 H       1  UNL1        0.1501
     11 C          65.2893   91.7839   14.5536 C.3     1  UNL1        0.1167
     12 C          65.4476   92.4498   13.2188 C.ar    1  UNL1        0.0005
     13 C          66.2606   93.7046   13.0984 C.ar    1  UNL1        0.0181
     14 C          66.4190   94.3704   11.7637 C.ar    1  UNL1        0.0986
     15 N          65.7643   93.7815   10.5494 N.ar    1  UNL1       -0.2423
     16 C          64.9513   92.5267   10.6698 C.ar    1  UNL1        0.0986
     17 C          64.7930   91.8609   12.0045 C.ar    1  UNL1        0.0181
     18 O          63.2598   83.7927   15.8844 O.3     1  UNL1       -0.4535
     19 C          63.1658   82.9810   14.6265 C.ar    1  UNL1        0.1454
     20 C          61.9989   82.0635   14.4114 C.ar    1  UNL1        0.0398
     21 C          61.9049   81.2519   13.1535 C.ar    1  UNL1        0.0328
     22 C          62.9779   81.3577   12.1107 C.ar    1  UNL1        0.1403
     23 F          62.8839   80.5460   10.8528 F       1  UNL1       -0.2042
     24 C          64.1449   82.2752   12.3258 C.ar    1  UNL1        0.0328
     25 C          64.2388   83.0869   13.5838 C.ar    1  UNL1        0.0398
@<TRIPOS>BOND
     1     7     8    2
     2     8     9   am
     3     9    11    1
     4    11    12    1
     5    12    13   ar
     6    13    14   ar
     7    14    15   ar
     8    15    16   ar
     9    16    17   ar
    10     8     1    1
    11     1     2   ar
    12     2     3   ar
    13     3     4   ar
    14     4    18    1
    15    18    19    1
    16    19    20   ar
    17    20    21   ar
    18    21    22   ar
    19    22    23    1
    20    22    24   ar
    21    24    25   ar
    22     4     5   ar
    23     5     6   ar
    24    17    12   ar
    25     6     1   ar
    26    25    19   ar
    27     9    10    1
@<TRIPOS>MOLECULE
*****
 25 27 0 0 0
SMALL
GASTEIGER

@<TRIPOS>ATOM
      1 C          63.1645   90.2727   11.8411 C.ar    1  UNL1        0.0536
      2 C          63.4986   91.1623   10.6805 C.ar    1  UNL1        0.0076
      3 C          64.4779   92.2852   10.8538 C.ar    1  UNL1        0.0376
      4 C          65.1231   92.5185   12.1877 C.ar    1  UNL1        0.1453
      5 C          64.7890   91.6289   13.3483 C.ar    1  UNL1        0.0376
      6 C          63.8096   90.5060   13.1749 C.ar    1  UNL1        0.0076
      7 O          60.7289   89.3746   11.9484 O.2     1  UNL1       -0.2701
      8 C          62.1852   89.1498   11.6677 C.2     1  UNL1        0.2461
      9 N          62.6622   87.8020   11.2138 N.am    1  UNL1       -0.2969
     10 H          63.6180   87.6544   11.0296 H       1  UNL1        0.1501
     11 C          61.6829   86.6791   11.0405 C.3     1  UNL1        0.1167
     12 C          60.9958   86.4800    9.7220 C.ar    1  UNL1        0.0005
     13 C          61.6337   85.6282    8.6649 C.ar    1  UNL1        0.0181
     14 C          60.9466   85.4291    7.3465 C.ar    1  UNL1        0.0986
     15 N          59.6215   86.0817    7.0853 N.ar    1  UNL1       -0.2423
     16 C          58.9835   86.9335    8.1424 C.ar    1  UNL1        0.0986
     17 C          59.6707   87.1326    9.4607 C.ar    1  UNL1        0.0181
     18 O          66.1024   93.6414   12.3611 O.3     1  UNL1       -0.4535
     19 C          66.5405   94.4446   11.1724 C.ar    1  UNL1        0.1454
     20 C          67.1125   93.7539    9.9701 C.ar    1  UNL1        0.0398
     21 C          67.5507   94.5571    8.7815 C.ar    1  UNL1        0.0328
     22 C          67.4169   96.0510    8.7952 C.ar    1  UNL1        0.1403
     23 F          67.8551   96.8542    7.6065 F       1  UNL1       -0.2042
     24 C          66.8449   96.7417    9.9975 C.ar    1  UNL1        0.0328
     25 C          66.4067   95.9385   11.1861 C.ar    1  UNL1        0.0398
@<TRIPOS>BOND
     1     7     8    2
     2     8     9   am
     3     9    11    1
     4    11    12    1
     5    12    13   ar
     6    13    14   ar
     7    14    15   ar
     8    15    16   ar
     9    16    17   ar
    10     8     1    1
    11     1     2   ar
    12     2     3   ar
    13     3     4   ar
    14     4    18    1
    15    18    19    1
    16    19    20   ar
    17    20    21   ar
    18    21    22   ar
    19    22    23    1
    20    22    24   ar
    21    24    25   ar
    22     4     5   ar
    23     5     6   ar
    24    17    12   ar
    25     6     1   ar
    26    25    19   ar
    27     9    10    1
@<TRIPOS>MOLECULE
*****
 25 27 0 0 0
SMALL
GASTEIGER

@<TRIPOS>ATOM
      1 C          63.2819   90.4408   11.8061 C.ar    1  UNL1        0.0536
      2 C          63.3061   89.0688   12.4118 C.ar    1  UNL1        0.0076
      3 C          62.4251   87.9887   11.8576 C.ar    1  UNL1        0.0376
      4 C          61.5198   88.2806   10.6978 C.ar    1  UNL1        0.1453
      5 C          61.4956   89.6527   10.0921 C.ar    1  UNL1        0.0376
      6 C          62.3767   90.7328   10.6463 C.ar    1  UNL1        0.0076
      7 O          64.1857   91.7866   13.8364 O.2     1  UNL1       -0.2701
      8 C          64.1630   91.5209   12.3603 C.2     1  UNL1        0.2461
      9 N          65.0213   92.3354   11.4383 N.am    1  UNL1       -0.2969
     10 H          65.0063   92.1611   10.4695 H       1  UNL1        0.1501
     11 C          65.9023   93.4155   11.9924 C.3     1  UNL1        0.1167
     12 C          66.8265   93.1167   13.1356 C.ar    1  UNL1        0.0005
     13 C          67.8335   92.0114   13.0168 C.ar    1  UNL1        0.0181
     14 C          68.7576   91.7127   14.1599 C.ar    1  UNL1        0.0986
     15 N          68.6747   92.5193   15.4218 N.ar    1  UNL1       -0.2423
     16 C          67.6678   93.6247   15.5406 C.ar    1  UNL1        0.0986
     17 C          66.7437   93.9234   14.3975 C.ar    1  UNL1        0.0181
     18 O          60.6387   87.2005   10.1436 O.3     1  UNL1       -0.4535
     19 C          61.0974   86.3871    8.9697 C.ar    1  UNL1        0.1454
     20 C          60.1520   86.0996    7.8412 C.ar    1  UNL1        0.0398
     21 C          60.6107   85.2862    6.6673 C.ar    1  UNL1        0.0328
     22 C          62.0147   84.7602    6.6220 C.ar    1  UNL1        0.1403
     23 F          62.4733   83.9468    5.4481 F       1  UNL1       -0.2042
     24 C          62.9600   85.0477    7.7505 C.ar    1  UNL1        0.0328
     25 C          62.5014   85.8611    8.9244 C.ar    1  UNL1        0.0398
@<TRIPOS>BOND
     1     7     8    2
     2     8     9   am
     3     9    11    1
     4    11    12    1
     5    12    13   ar
     6    13    14   ar
     7    14    15   ar
     8    15    16   ar
     9    16    17   ar
    10     8     1    1
    11     1     2   ar
    12     2     3   ar
    13     3     4   ar
    14     4    18    1
    15    18    19    1
    16    19    20   ar
    17    20    21   ar
    18    21    22   ar
    19    22    23    1
    20    22    24   ar
    21    24    25   ar
    22     4     5   ar
    23     5     6   ar
    24    17    12   ar
    25     6     1   ar
    26    25    19   ar
    27     9    10    1
@<TRIPOS>MOLECULE
*****
 25 27 0 0 0
SMALL
GASTEIGER

@<TRIPOS>ATOM
      1 C          63.7306   87.8454   15.6913 C.ar    1  UNL1        0.0536
      2 C          64.2924   87.0001   14.5867 C.ar    1  UNL1        0.0076
      3 C          64.1005   85.5127   14.6089 C.ar    1  UNL1        0.0376
      4 C          63.3469   84.8703   15.7356 C.ar    1  UNL1        0.1453
      5 C          62.7851   85.7155   16.8401 C.ar    1  UNL1        0.0376
      6 C          62.9769   87.2031   16.8179 C.ar    1  UNL1        0.0076
      7 O          63.1655   90.2011   16.6300 O.2     1  UNL1       -0.2701
      8 C          63.9224   89.3328   15.6691 C.2     1  UNL1        0.2461
      9 N          64.8712   89.9522   14.6861 N.am    1  UNL1       -0.2969
     10 H          65.3680   89.3823   14.0554 H       1  UNL1        0.1501
     11 C          65.0630   91.4397   14.6639 C.3     1  UNL1        0.1167
     12 C          66.4418   92.0198   14.7756 C.ar    1  UNL1        0.0005
     13 C          67.4666   91.7268   13.7202 C.ar    1  UNL1        0.0181
     14 C          68.8453   92.3070   13.8320 C.ar    1  UNL1        0.0986
     15 N          69.1992   93.1802   14.9991 N.ar    1  UNL1       -0.2423
     16 C          68.1745   93.4732   16.0545 C.ar    1  UNL1        0.0986
     17 C          66.7958   92.8930   15.9428 C.ar    1  UNL1        0.0181
     18 O          63.1550   83.3828   15.7578 O.3     1  UNL1       -0.4535
     19 C          63.0760   82.6175   14.4701 C.ar    1  UNL1        0.1454
     20 C          62.0065   81.5839   14.2764 C.ar    1  UNL1        0.0398
     21 C          61.9275   80.8186   12.9887 C.ar    1  UNL1        0.0328
     22 C          62.9181   81.0869   11.8948 C.ar    1  UNL1        0.1403
     23 F          62.8391   80.3216   10.6071 F       1  UNL1       -0.2042
     24 C          63.9876   82.1206   12.0885 C.ar    1  UNL1        0.0328
     25 C          64.0666   82.8859   13.3762 C.ar    1  UNL1        0.0398
@<TRIPOS>BOND
     1     7     8    2
     2     8     9   am
     3     9    11    1
     4    11    12    1
     5    12    13   ar
     6    13    14   ar
     7    14    15   ar
     8    15    16   ar
     9    16    17   ar
    10     8     1    1
    11     1     2   ar
    12     2     3   ar
    13     3     4   ar
    14     4    18    1
    15    18    19    1
    16    19    20   ar
    17    20    21   ar
    18    21    22   ar
    19    22    23    1
    20    22    24   ar
    21    24    25   ar
    22     4     5   ar
    23     5     6   ar
    24    17    12   ar
    25     6     1   ar
    26    25    19   ar
    27     9    10    1
@<TRIPOS>MOLECULE
*****
 25 27 0 0 0
SMALL
GASTEIGER

@<TRIPOS>ATOM
      1 C          60.5721   87.7007    9.1028 C.ar    1  UNL1        0.0536
      2 C          61.2261   88.6855   10.0261 C.ar    1  UNL1        0.0076
      3 C          62.0954   88.1992   11.1476 C.ar    1  UNL1        0.0376
      4 C          62.3108   86.7279   11.3458 C.ar    1  UNL1        0.1453
      5 C          61.6568   85.7431   10.4225 C.ar    1  UNL1        0.0376
      6 C          60.7875   86.2295    9.3009 C.ar    1  UNL1        0.0076
      7 O          58.5800   87.3299    7.4768 O.2     1  UNL1       -0.2701
      8 C          59.7028   88.1870    7.9813 C.2     1  UNL1        0.2461
      9 N          59.9564   89.5305    7.3642 N.am    1  UNL1       -0.2969
     10 H          60.6934   90.0931    7.6953 H       1  UNL1        0.1501
     11 C          59.0871   90.0169    6.2427 C.3     1  UNL1        0.1167
     12 C          59.6658   90.8918    5.1705 C.ar    1  UNL1        0.0005
     13 C          61.1286   90.8148    4.8478 C.ar    1  UNL1        0.0181
     14 C          61.7072   91.6897    3.7756 C.ar    1  UNL1        0.0986
     15 N          60.8229   92.6417    3.0260 N.ar    1  UNL1       -0.2423
     16 C          59.3601   92.7188    3.3487 C.ar    1  UNL1        0.0986
     17 C          58.7815   91.8438    4.4209 C.ar    1  UNL1        0.0181
     18 O          63.1800   86.2416   12.4673 O.3     1  UNL1       -0.4535
     19 C          63.2188   84.7811   12.8070 C.ar    1  UNL1        0.1454
     20 C          63.9936   83.8305   11.9434 C.ar    1  UNL1        0.0398
     21 C          64.0323   82.3700   12.2832 C.ar    1  UNL1        0.0328
     22 C          63.2962   81.8601   13.4866 C.ar    1  UNL1        0.1403
     23 F          63.3349   80.3996   13.8264 F       1  UNL1       -0.2042
     24 C          62.5214   82.8108   14.3502 C.ar    1  UNL1        0.0328
     25 C          62.4827   84.2713   14.0104 C.ar    1  UNL1        0.0398
@<TRIPOS>BOND
     1     7     8    2
     2     8     9   am
     3     9    11    1
     4    11    12    1
     5    12    13   ar
     6    13    14   ar
     7    14    15   ar
     8    15    16   ar
     9    16    17   ar
    10     8     1    1
    11     1     2   ar
    12     2     3   ar
    13     3     4   ar
    14     4    18    1
    15    18    19    1
    16    19    20   ar
    17    20    21   ar
    18    21    22   ar
    19    22    23    1
    20    22    24   ar
    21    24    25   ar
    22     4     5   ar
    23     5     6   ar
    24    17    12   ar
    25     6     1   ar
    26    25    19   ar
    27     9    10    1
