@<TRIPOS>MOLECULE
*****
 35 39 0 0 0
SMALL
GASTEIGER

@<TRIPOS>ATOM
      1 C          62.6550   86.1143   17.9348 C.3     1  UNL1        0.1332
      2 N          63.2873   86.6108   16.6684 N.ar    1  UNL1       -0.2975
      3 C          63.8691   85.7580   15.5802 C.ar    1  UNL1        0.2017
      4 N          64.3901   86.6674   14.5072 N.ar    1  UNL1       -0.2134
      5 C          64.1303   88.0823   14.9322 C.ar    1  UNL1        0.1030
      6 C          64.4263   89.3980   14.2755 C.ar    1  UNL1        0.0581
      7 C          64.0407   90.6787   14.9545 C.ar    1  UNL1        0.1469
      8 C          63.3591   90.6437   16.2903 C.ar    1  UNL1        0.0391
      9 C          63.0631   89.3280   16.9470 C.ar    1  UNL1        0.0219
     10 C          63.4487   88.0473   16.2680 C.ar    1  UNL1        0.0801
     11 N          63.9208   84.2589   15.5674 N.pl3   1  UNL1       -0.2839
     12 H          64.2714   83.7718   16.3477 H       1  UNL1        0.1550
     13 C          63.4382   83.5022   14.3655 C.ar    1  UNL1        0.0501
     14 C          62.7852   82.1624   14.5353 C.ar    1  UNL1        0.0147
     15 C          62.3026   81.4057   13.3334 C.ar    1  UNL1        0.0009
     16 C          62.4732   81.9885   11.9619 C.ar    1  UNL1       -0.0042
     17 C          63.1262   83.3281   11.7921 C.ar    1  UNL1       -0.0216
     18 C          63.6088   84.0850   12.9940 C.ar    1  UNL1        0.0104
     19 C          63.2967   83.9110   10.4205 C.3     1  UNL1        0.0190
     20 C          64.2454   82.8039   10.0680 C.3     1  UNL1        0.0044
     21 C          62.3481   85.0181   10.7731 C.3     1  UNL1        0.0044
     22 C          63.4673   84.4938    9.0490 C.3     1  UNL1        0.0044
     23 O          64.3368   91.9945   14.2978 O.3     1  UNL1       -0.4533
     24 C          65.6161   92.1822   13.5375 C.ar    1  UNL1        0.1485
     25 C          66.8714   91.5057   14.0031 C.ar    1  UNL1        0.0582
     26 C          68.1507   91.6934   13.2427 C.ar    1  UNL1        0.1021
     27 N          68.1747   92.5576   12.0169 N.ar    1  UNL1       -0.2406
     28 C          66.9195   93.2340   11.5514 C.ar    1  UNL1        0.1181
     29 C          65.6401   93.0463   12.3117 C.ar    1  UNL1        0.0597
     30 C          66.9435   94.0982   10.3255 C.ar    1  UNL1        0.1585
     31 N          68.0595   94.1808    9.3267 N.ar    1  UNL1       -0.2239
     32 C          67.6614   95.1652    8.2672 C.ar    1  UNL1        0.1190
     33 C          66.2993   95.6910    8.6112 C.ar    1  UNL1        0.0945
     34 N          65.8556   95.0315    9.8834 N.ar    1  UNL1       -0.3349
     35 H          65.0005   95.1844   10.3468 H       1  UNL1        0.1675
@<TRIPOS>BOND
     1     1     2    1
     2     2     3   ar
     3     3    11    1
     4    11    13    1
     5    13    14   ar
     6    14    15   ar
     7    15    16   ar
     8    16    17   ar
     9    17    19    1
    10    19    20    1
    11    19    21    1
    12    19    22    1
    13    17    18   ar
    14     3     4   ar
    15     4     5   ar
    16     5     6   ar
    17     6     7   ar
    18     7    23    1
    19    23    24    1
    20    24    25   ar
    21    25    26   ar
    22    26    27   ar
    23    27    28   ar
    24    28    30    1
    25    30    31   ar
    26    31    32   ar
    27    32    33   ar
    28    33    34   ar
    29    28    29   ar
    30     7     8   ar
    31     8     9   ar
    32     9    10   ar
    33    10     2   ar
    34    18    13   ar
    35    10     5   ar
    36    29    24   ar
    37    34    30   ar
    38    11    12    1
    39    34    35    1
@<TRIPOS>MOLECULE
*****
 35 39 0 0 0
SMALL
GASTEIGER

@<TRIPOS>ATOM
      1 C          62.6962   84.8811   16.9290 C.3     1  UNL1        0.1332
      2 N          63.3037   85.8214   15.9306 N.ar    1  UNL1       -0.2975
      3 C          63.9118   85.4373   14.6143 C.ar    1  UNL1        0.2017
      4 N          64.3936   86.6894   13.9434 N.ar    1  UNL1       -0.2134
      5 C          64.0833   87.8473   14.8450 C.ar    1  UNL1        0.1030
      6 C          64.3271   89.3208   14.7064 C.ar    1  UNL1        0.0581
      7 C          63.8973   90.2579   15.7959 C.ar    1  UNL1        0.1469
      8 C          63.2237   89.7214   17.0241 C.ar    1  UNL1        0.0391
      9 C          62.9799   88.2479   17.1628 C.ar    1  UNL1        0.0219
     10 C          63.4097   87.3108   16.0732 C.ar    1  UNL1        0.0801
     11 N          64.0192   84.0455   14.0652 N.pl3   1  UNL1       -0.2839
     12 H          64.1869   83.2886   14.6720 H       1  UNL1        0.1550
     13 C          63.8710   83.8070   12.5918 C.ar    1  UNL1        0.0501
     14 C          64.4800   82.5882   11.9643 C.ar    1  UNL1        0.0147
     15 C          64.3318   82.3497   10.4908 C.ar    1  UNL1        0.0009
     16 C          63.5746   83.3299    9.6448 C.ar    1  UNL1       -0.0042
     17 C          62.9656   84.5487   10.2722 C.ar    1  UNL1       -0.0216
     18 C          63.1138   84.7872   11.7458 C.ar    1  UNL1        0.0104
     19 C          62.2083   85.5289    9.4262 C.3     1  UNL1        0.0190
     20 C          63.0578   85.1653    8.2446 C.3     1  UNL1        0.0044
     21 C          61.3588   85.8925   10.6078 C.3     1  UNL1        0.0044
     22 C          61.4511   86.5091    8.5802 C.3     1  UNL1        0.0044
     23 O          64.1411   91.7315   15.6573 O.3     1  UNL1       -0.4533
     24 C          65.4764   92.2300   15.1898 C.ar    1  UNL1        0.1485
     25 C          66.5188   92.6330   16.1903 C.ar    1  UNL1        0.0582
     26 C          67.8540   93.1315   15.7228 C.ar    1  UNL1        0.1021
     27 N          68.1468   93.2271   14.2547 N.ar    1  UNL1       -0.2406
     28 C          67.1044   92.8242   13.2543 C.ar    1  UNL1        0.1181
     29 C          65.7692   92.3256   13.7218 C.ar    1  UNL1        0.0597
     30 C          67.3972   92.9198   11.7862 C.ar    1  UNL1        0.1585
     31 N          66.8449   93.9461   10.8420 N.ar    1  UNL1       -0.2239
     32 C          67.4000   93.6665    9.4768 C.ar    1  UNL1        0.1190
     33 C          68.2955   92.4672    9.5773 C.ar    1  UNL1        0.0945
     34 N          68.2938   92.0058   11.0047 N.ar    1  UNL1       -0.3349
     35 H          68.7934   91.2379   11.3652 H       1  UNL1        0.1675
@<TRIPOS>BOND
     1     1     2    1
     2     2     3   ar
     3     3    11    1
     4    11    13    1
     5    13    14   ar
     6    14    15   ar
     7    15    16   ar
     8    16    17   ar
     9    17    19    1
    10    19    20    1
    11    19    21    1
    12    19    22    1
    13    17    18   ar
    14     3     4   ar
    15     4     5   ar
    16     5     6   ar
    17     6     7   ar
    18     7    23    1
    19    23    24    1
    20    24    25   ar
    21    25    26   ar
    22    26    27   ar
    23    27    28   ar
    24    28    30    1
    25    30    31   ar
    26    31    32   ar
    27    32    33   ar
    28    33    34   ar
    29    28    29   ar
    30     7     8   ar
    31     8     9   ar
    32     9    10   ar
    33    10     2   ar
    34    18    13   ar
    35    10     5   ar
    36    29    24   ar
    37    34    30   ar
    38    11    12    1
    39    34    35    1
@<TRIPOS>MOLECULE
*****
 35 39 0 0 0
SMALL
GASTEIGER

@<TRIPOS>ATOM
      1 C          60.8524   86.3412    8.1996 C.3     1  UNL1        0.1332
      2 N          60.7763   87.7480    8.7144 N.ar    1  UNL1       -0.2975
      3 C          59.9814   88.8667    8.1087 C.ar    1  UNL1        0.2017
      4 N          60.1956   90.0932    8.9452 N.ar    1  UNL1       -0.2134
      5 C          61.1229   89.7326   10.0678 C.ar    1  UNL1        0.1030
      6 C          61.6868   90.5369   11.2014 C.ar    1  UNL1        0.0581
      7 C          62.6096   89.8916   12.1924 C.ar    1  UNL1        0.1469
      8 C          62.9685   88.4422   12.0497 C.ar    1  UNL1        0.0391
      9 C          62.4046   87.6380   10.9161 C.ar    1  UNL1        0.0219
     10 C          61.4818   88.2832    9.9251 C.ar    1  UNL1        0.0801
     11 N          59.1230   88.7749    6.8821 N.pl3   1  UNL1       -0.2839
     12 H          58.6293   87.9456    6.6877 H       1  UNL1        0.1550
     13 C          59.0168   89.9466    5.9516 C.ar    1  UNL1        0.0501
     14 C          57.7081   90.6625    5.7935 C.ar    1  UNL1        0.0147
     15 C          57.6019   91.8342    4.8630 C.ar    1  UNL1        0.0009
     16 C          58.8042   92.2900    4.0906 C.ar    1  UNL1       -0.0042
     17 C          60.1128   91.5741    4.2488 C.ar    1  UNL1       -0.0216
     18 C          60.2191   90.4024    5.1793 C.ar    1  UNL1        0.0104
     19 C          61.3152   92.0300    3.4764 C.3     1  UNL1        0.0190
     20 C          62.1383   90.9560    4.1238 C.3     1  UNL1        0.0044
     21 C          60.4922   93.1040    2.8290 C.3     1  UNL1        0.0044
     22 C          62.5176   92.4858    2.7041 C.3     1  UNL1        0.0044
     23 O          63.1736   90.6959   13.3261 O.3     1  UNL1       -0.4533
     24 C          64.5529   91.2759   13.2208 C.ar    1  UNL1        0.1485
     25 C          65.5650   91.0035   14.2940 C.ar    1  UNL1        0.0582
     26 C          66.9443   91.5835   14.1887 C.ar    1  UNL1        0.1021
     27 N          67.3115   92.4359   13.0103 N.ar    1  UNL1       -0.2406
     28 C          66.2995   92.7083   11.9372 C.ar    1  UNL1        0.1181
     29 C          64.9201   92.1283   12.0425 C.ar    1  UNL1        0.0597
     30 C          66.6667   93.5607   10.7588 C.ar    1  UNL1        0.1585
     31 N          67.9615   93.5099   10.0032 N.ar    1  UNL1       -0.2239
     32 C          67.8986   94.5314    8.9065 C.ar    1  UNL1        0.1190
     33 C          66.5648   95.2135    8.9843 C.ar    1  UNL1        0.0945
     34 N          65.8034   94.6135   10.1291 N.ar    1  UNL1       -0.3349
     35 H          64.8965   94.8664   10.4167 H       1  UNL1        0.1675
@<TRIPOS>BOND
     1     1     2    1
     2     2     3   ar
     3     3    11    1
     4    11    13    1
     5    13    14   ar
     6    14    15   ar
     7    15    16   ar
     8    16    17   ar
     9    17    19    1
    10    19    20    1
    11    19    21    1
    12    19    22    1
    13    17    18   ar
    14     3     4   ar
    15     4     5   ar
    16     5     6   ar
    17     6     7   ar
    18     7    23    1
    19    23    24    1
    20    24    25   ar
    21    25    26   ar
    22    26    27   ar
    23    27    28   ar
    24    28    30    1
    25    30    31   ar
    26    31    32   ar
    27    32    33   ar
    28    33    34   ar
    29    28    29   ar
    30     7     8   ar
    31     8     9   ar
    32     9    10   ar
    33    10     2   ar
    34    18    13   ar
    35    10     5   ar
    36    29    24   ar
    37    34    30   ar
    38    11    12    1
    39    34    35    1
@<TRIPOS>MOLECULE
*****
 35 39 0 0 0
SMALL
GASTEIGER

@<TRIPOS>ATOM
      1 C          63.3624   87.7800   12.4712 C.3     1  UNL1        0.1332
      2 N          62.5567   88.7852   11.7029 N.ar    1  UNL1       -0.2975
      3 C          62.4178   90.2419   12.0329 C.ar    1  UNL1        0.2017
      4 N          61.5237   90.8671   11.0036 N.ar    1  UNL1       -0.2134
      5 C          61.1099   89.7969   10.0374 C.ar    1  UNL1        0.1030
      6 C          60.2343   89.8278    8.8199 C.ar    1  UNL1        0.0581
      7 C          59.9971   88.5720    8.0346 C.ar    1  UNL1        0.1469
      8 C          60.6356   87.2853    8.4668 C.ar    1  UNL1        0.0391
      9 C          61.5112   87.2544    9.6843 C.ar    1  UNL1        0.0219
     10 C          61.7483   88.5102   10.4696 C.ar    1  UNL1        0.0801
     11 N          63.0603   90.9490   13.1892 N.pl3   1  UNL1       -0.2839
     12 H          62.5455   91.1161   14.0116 H       1  UNL1        0.1550
     13 C          64.4871   91.4017   13.0925 C.ar    1  UNL1        0.0501
     14 C          65.4359   91.1381   14.2241 C.ar    1  UNL1        0.0147
     15 C          66.8627   91.5908   14.1274 C.ar    1  UNL1        0.0009
     16 C          67.3407   92.3071   12.8992 C.ar    1  UNL1       -0.0042
     17 C          66.3919   92.5707   11.7677 C.ar    1  UNL1       -0.0216
     18 C          64.9651   92.1180   11.8644 C.ar    1  UNL1        0.0104
     19 C          66.8699   93.2870   10.5395 C.3     1  UNL1        0.0190
     20 C          67.9259   92.2405   10.3402 C.3     1  UNL1        0.0044
     21 C          65.8140   94.3335   10.7389 C.3     1  UNL1        0.0044
     22 C          67.3480   94.0033    9.3114 C.3     1  UNL1        0.0044
     23 O          59.1215   88.6029    6.8171 O.3     1  UNL1       -0.4533
     24 C          59.0598   89.8385    5.9688 C.ar    1  UNL1        0.1485
     25 C          57.7948   90.6422    5.9052 C.ar    1  UNL1        0.0582
     26 C          57.7331   91.8778    5.0570 C.ar    1  UNL1        0.1021
     27 N          58.9363   92.3096    4.2723 N.ar    1  UNL1       -0.2406
     28 C          60.2012   91.5060    4.3358 C.ar    1  UNL1        0.1181
     29 C          60.2629   90.2704    5.1841 C.ar    1  UNL1        0.0597
     30 C          61.4045   91.9378    3.5511 C.ar    1  UNL1        0.1585
     31 N          62.7870   91.3686    3.6723 N.ar    1  UNL1       -0.2239
     32 C          63.6734   92.0937    2.7035 C.ar    1  UNL1        0.1190
     33 C          62.8387   93.1112    1.9836 C.ar    1  UNL1        0.0945
     34 N          61.4364   93.0148    2.5075 N.ar    1  UNL1       -0.3349
     35 H          60.6713   93.5622    2.2173 H       1  UNL1        0.1675
@<TRIPOS>BOND
     1     1     2    1
     2     2     3   ar
     3     3    11    1
     4    11    13    1
     5    13    14   ar
     6    14    15   ar
     7    15    16   ar
     8    16    17   ar
     9    17    19    1
    10    19    20    1
    11    19    21    1
    12    19    22    1
    13    17    18   ar
    14     3     4   ar
    15     4     5   ar
    16     5     6   ar
    17     6     7   ar
    18     7    23    1
    19    23    24    1
    20    24    25   ar
    21    25    26   ar
    22    26    27   ar
    23    27    28   ar
    24    28    30    1
    25    30    31   ar
    26    31    32   ar
    27    32    33   ar
    28    33    34   ar
    29    28    29   ar
    30     7     8   ar
    31     8     9   ar
    32     9    10   ar
    33    10     2   ar
    34    18    13   ar
    35    10     5   ar
    36    29    24   ar
    37    34    30   ar
    38    11    12    1
    39    34    35    1
@<TRIPOS>MOLECULE
*****
 35 39 0 0 0
SMALL
GASTEIGER

@<TRIPOS>ATOM
      1 C          63.1000   87.2797   12.1637 C.3     1  UNL1        0.1332
      2 N          62.3191   88.3649   11.4835 N.ar    1  UNL1       -0.2975
      3 C          62.2293   89.7956   11.9250 C.ar    1  UNL1        0.2017
      4 N          61.3456   90.5248   10.9568 N.ar    1  UNL1       -0.2134
      5 C          60.8892   89.5447    9.9170 C.ar    1  UNL1        0.1030
      6 C          60.0035   89.6953    8.7159 C.ar    1  UNL1        0.0581
      7 C          59.7195   88.5110    7.8403 C.ar    1  UNL1        0.1469
      8 C          60.3212   87.1761    8.1658 C.ar    1  UNL1        0.0391
      9 C          61.2069   87.0255    9.3670 C.ar    1  UNL1        0.0219
     10 C          61.4909   88.2098   10.2426 C.ar    1  UNL1        0.0801
     11 N          62.9046   90.3924   13.1241 N.pl3   1  UNL1       -0.2839
     12 H          62.5228   90.2585   14.0216 H       1  UNL1        0.1550
     13 C          64.1617   91.1933   12.9557 C.ar    1  UNL1        0.0501
     14 C          64.4563   91.8599   11.6446 C.ar    1  UNL1        0.0147
     15 C          65.7134   92.6608   11.4762 C.ar    1  UNL1        0.0009
     16 C          66.6758   92.7952   12.6189 C.ar    1  UNL1       -0.0042
     17 C          66.3811   92.1287   13.9299 C.ar    1  UNL1       -0.0216
     18 C          65.1241   91.3277   14.0984 C.ar    1  UNL1        0.0104
     19 C          67.3436   92.2631   15.0726 C.3     1  UNL1        0.0190
     20 C          66.2077   92.6117   15.9882 C.3     1  UNL1        0.0044
     21 C          68.4794   91.9144   14.1570 C.3     1  UNL1        0.0044
     22 C          68.3060   92.3974   16.2153 C.3     1  UNL1        0.0044
     23 O          58.8338   88.6616    6.6390 O.3     1  UNL1       -0.4533
     24 C          58.8791   89.9221    5.8271 C.ar    1  UNL1        0.1485
     25 C          57.6693   90.8052    5.7450 C.ar    1  UNL1        0.0582
     26 C          57.7145   92.0656    4.9331 C.ar    1  UNL1        0.1021
     27 N          58.9696   92.4431    4.2034 N.ar    1  UNL1       -0.2406
     28 C          60.1793   91.5600    4.2855 C.ar    1  UNL1        0.1181
     29 C          60.1340   90.2995    5.0974 C.ar    1  UNL1        0.0597
     30 C          61.4343   91.9374    3.5557 C.ar    1  UNL1        0.1585
     31 N          62.7678   91.2633    3.6881 N.ar    1  UNL1       -0.2239
     32 C          63.7338   91.9645    2.7797 C.ar    1  UNL1        0.1190
     33 C          62.9973   93.0720    2.0859 C.ar    1  UNL1        0.0945
     34 N          61.5761   93.0552    2.5656 N.ar    1  UNL1       -0.3349
     35 H          60.8619   93.6699    2.2805 H       1  UNL1        0.1675
@<TRIPOS>BOND
     1     1     2    1
     2     2     3   ar
     3     3    11    1
     4    11    13    1
     5    13    14   ar
     6    14    15   ar
     7    15    16   ar
     8    16    17   ar
     9    17    19    1
    10    19    20    1
    11    19    21    1
    12    19    22    1
    13    17    18   ar
    14     3     4   ar
    15     4     5   ar
    16     5     6   ar
    17     6     7   ar
    18     7    23    1
    19    23    24    1
    20    24    25   ar
    21    25    26   ar
    22    26    27   ar
    23    27    28   ar
    24    28    30    1
    25    30    31   ar
    26    31    32   ar
    27    32    33   ar
    28    33    34   ar
    29    28    29   ar
    30     7     8   ar
    31     8     9   ar
    32     9    10   ar
    33    10     2   ar
    34    18    13   ar
    35    10     5   ar
    36    29    24   ar
    37    34    30   ar
    38    11    12    1
    39    34    35    1
@<TRIPOS>MOLECULE
*****
 35 39 0 0 0
SMALL
GASTEIGER

@<TRIPOS>ATOM
      1 C          61.0431   88.4230    9.6449 C.3     1  UNL1        0.1332
      2 N          61.9104   88.0166   10.7994 N.ar    1  UNL1       -0.2975
      3 C          62.3100   86.6143   11.1511 C.ar    1  UNL1        0.2017
      4 N          63.1769   86.6723   12.3739 N.ar    1  UNL1       -0.2134
      5 C          63.3131   88.1105   12.7778 C.ar    1  UNL1        0.1030
      6 C          64.0486   88.7708   13.9060 C.ar    1  UNL1        0.0581
      7 C          64.0015   90.2620   14.0610 C.ar    1  UNL1        0.1469
      8 C          63.2187   91.0929   13.0879 C.ar    1  UNL1        0.0391
      9 C          62.4831   90.4325   11.9597 C.ar    1  UNL1        0.0219
     10 C          62.5303   88.9413   11.8047 C.ar    1  UNL1        0.0801
     11 N          61.9126   85.3721   10.4102 N.pl3   1  UNL1       -0.2839
     12 H          61.1896   85.4070    9.7429 H       1  UNL1        0.1550
     13 C          62.6167   84.0767   10.6860 C.ar    1  UNL1        0.0501
     14 C          63.7900   83.6671    9.8460 C.ar    1  UNL1        0.0147
     15 C          64.4941   82.3717   10.1218 C.ar    1  UNL1        0.0009
     16 C          64.0249   81.4858   11.2376 C.ar    1  UNL1       -0.0042
     17 C          62.8516   81.8953   12.0776 C.ar    1  UNL1       -0.0216
     18 C          62.1474   83.1907   11.8018 C.ar    1  UNL1        0.0104
     19 C          62.3823   81.0093   13.1933 C.3     1  UNL1        0.0190
     20 C          62.1791   82.2137   14.0641 C.3     1  UNL1        0.0044
     21 C          62.5855   79.8050   12.3225 C.3     1  UNL1        0.0044
     22 C          61.9131   80.1234   14.3091 C.3     1  UNL1        0.0044
     23 O          64.7371   90.9224   15.1893 O.3     1  UNL1       -0.4533
     24 C          65.7028   92.0346   14.9057 C.ar    1  UNL1        0.1485
     25 C          66.6927   92.4534   15.9520 C.ar    1  UNL1        0.0582
     26 C          67.6584   93.5656   15.6685 C.ar    1  UNL1        0.1021
     27 N          67.6342   94.2591   14.3386 N.ar    1  UNL1       -0.2406
     28 C          66.6442   93.8404   13.2924 C.ar    1  UNL1        0.1181
     29 C          65.6785   92.7282   13.5759 C.ar    1  UNL1        0.0597
     30 C          66.6200   94.5339   11.9625 C.ar    1  UNL1        0.1585
     31 N          67.3754   94.1155   10.7360 N.ar    1  UNL1       -0.2239
     32 C          67.0583   95.0906    9.6412 C.ar    1  UNL1        0.1190
     33 C          66.1069   96.1116   10.1910 C.ar    1  UNL1        0.0945
     34 N          65.8360   95.7676   11.6257 N.ar    1  UNL1       -0.3349
     35 H          65.2470   96.2642   12.2387 H       1  UNL1        0.1675
@<TRIPOS>BOND
     1     1     2    1
     2     2     3   ar
     3     3    11    1
     4    11    13    1
     5    13    14   ar
     6    14    15   ar
     7    15    16   ar
     8    16    17   ar
     9    17    19    1
    10    19    20    1
    11    19    21    1
    12    19    22    1
    13    17    18   ar
    14     3     4   ar
    15     4     5   ar
    16     5     6   ar
    17     6     7   ar
    18     7    23    1
    19    23    24    1
    20    24    25   ar
    21    25    26   ar
    22    26    27   ar
    23    27    28   ar
    24    28    30    1
    25    30    31   ar
    26    31    32   ar
    27    32    33   ar
    28    33    34   ar
    29    28    29   ar
    30     7     8   ar
    31     8     9   ar
    32     9    10   ar
    33    10     2   ar
    34    18    13   ar
    35    10     5   ar
    36    29    24   ar
    37    34    30   ar
    38    11    12    1
    39    34    35    1
@<TRIPOS>MOLECULE
*****
 35 39 0 0 0
SMALL
GASTEIGER

@<TRIPOS>ATOM
      1 C          62.9565   84.7430   11.7493 C.3     1  UNL1        0.1332
      2 N          63.5272   85.5099   12.9053 N.ar    1  UNL1       -0.2975
      3 C          64.2527   84.9238   14.0800 C.ar    1  UNL1        0.2017
      4 N          64.6464   86.0492   14.9902 N.ar    1  UNL1       -0.2134
      5 C          64.1641   87.3309   14.3780 C.ar    1  UNL1        0.1030
      6 C          64.2654   88.7583   14.8274 C.ar    1  UNL1        0.0581
      7 C          63.6751   89.8525   13.9882 C.ar    1  UNL1        0.1469
      8 C          62.9833   89.5192   12.6997 C.ar    1  UNL1        0.0391
      9 C          62.8820   88.0917   12.2503 C.ar    1  UNL1        0.0219
     10 C          63.4724   86.9975   13.0894 C.ar    1  UNL1        0.0801
     11 N          64.5351   83.4679   14.3050 N.pl3   1  UNL1       -0.2839
     12 H          65.3790   83.1899   14.7291 H       1  UNL1        0.1550
     13 C          63.5317   82.4355   13.8840 C.ar    1  UNL1        0.0501
     14 C          62.3486   82.1395   14.7574 C.ar    1  UNL1        0.0147
     15 C          61.3452   81.1071   14.3364 C.ar    1  UNL1        0.0009
     16 C          61.5248   80.3707   13.0420 C.ar    1  UNL1       -0.0042
     17 C          62.7079   80.6666   12.1687 C.ar    1  UNL1       -0.0216
     18 C          63.7113   81.6990   12.5897 C.ar    1  UNL1        0.0104
     19 C          62.8875   79.9301   10.8743 C.3     1  UNL1        0.0190
     20 C          62.5232   78.6443   11.5554 C.3     1  UNL1        0.0044
     21 C          63.2518   81.2160   10.1933 C.3     1  UNL1        0.0044
     22 C          63.0672   79.1937    9.5800 C.3     1  UNL1        0.0044
     23 O          63.7764   91.2800   14.4376 O.3     1  UNL1       -0.4533
     24 C          65.0530   92.0412   14.2352 C.ar    1  UNL1        0.1485
     25 C          65.8756   92.4544   15.4196 C.ar    1  UNL1        0.0582
     26 C          67.1522   93.2155   15.2172 C.ar    1  UNL1        0.1021
     27 N          67.6062   93.5635   13.8305 N.ar    1  UNL1       -0.2406
     28 C          66.7836   93.1503   12.6463 C.ar    1  UNL1        0.1181
     29 C          65.5070   92.3891   12.8486 C.ar    1  UNL1        0.0597
     30 C          67.2375   93.4982   11.2595 C.ar    1  UNL1        0.1585
     31 N          67.0780   94.8298   10.5877 N.ar    1  UNL1       -0.2239
     32 C          67.6726   94.7302    9.2142 C.ar    1  UNL1        0.1190
     33 C          68.1996   93.3370    9.0371 C.ar    1  UNL1        0.0945
     34 N          67.9307   92.5756   10.3013 N.ar    1  UNL1       -0.3349
     35 H          68.1676   91.6354   10.4721 H       1  UNL1        0.1675
@<TRIPOS>BOND
     1     1     2    1
     2     2     3   ar
     3     3    11    1
     4    11    13    1
     5    13    14   ar
     6    14    15   ar
     7    15    16   ar
     8    16    17   ar
     9    17    19    1
    10    19    20    1
    11    19    21    1
    12    19    22    1
    13    17    18   ar
    14     3     4   ar
    15     4     5   ar
    16     5     6   ar
    17     6     7   ar
    18     7    23    1
    19    23    24    1
    20    24    25   ar
    21    25    26   ar
    22    26    27   ar
    23    27    28   ar
    24    28    30    1
    25    30    31   ar
    26    31    32   ar
    27    32    33   ar
    28    33    34   ar
    29    28    29   ar
    30     7     8   ar
    31     8     9   ar
    32     9    10   ar
    33    10     2   ar
    34    18    13   ar
    35    10     5   ar
    36    29    24   ar
    37    34    30   ar
    38    11    12    1
    39    34    35    1
@<TRIPOS>MOLECULE
*****
 35 39 0 0 0
SMALL
GASTEIGER

@<TRIPOS>ATOM
      1 C          63.2765   90.8040   17.0127 C.3     1  UNL1        0.1332
      2 N          63.7569   89.7417   16.0689 N.ar    1  UNL1       -0.2975
      3 C          64.5894   89.9641   14.8411 C.ar    1  UNL1        0.2017
      4 N          64.8361   88.6303   14.2006 N.ar    1  UNL1       -0.2134
      5 C          64.1561   87.5837   15.0325 C.ar    1  UNL1        0.1030
      6 C          64.0581   86.0939   14.8878 C.ar    1  UNL1        0.0581
      7 C          63.2930   85.2911   15.8978 C.ar    1  UNL1        0.1469
      8 C          62.6260   85.9779   17.0524 C.ar    1  UNL1        0.0391
      9 C          62.7240   87.4677   17.1971 C.ar    1  UNL1        0.0219
     10 C          63.4891   88.2706   16.1872 C.ar    1  UNL1        0.0801
     11 N          65.0877   91.2878   14.3415 N.pl3   1  UNL1       -0.2839
     12 H          65.5466   91.9048   14.9563 H       1  UNL1        0.1550
     13 C          64.8869   91.6713   12.9054 C.ar    1  UNL1        0.0501
     14 C          63.7377   91.0985   12.1298 C.ar    1  UNL1        0.0147
     15 C          63.5368   91.4820   10.6937 C.ar    1  UNL1        0.0009
     16 C          64.4851   92.4383   10.0331 C.ar    1  UNL1       -0.0042
     17 C          65.6342   93.0111   10.8086 C.ar    1  UNL1       -0.0216
     18 C          65.8351   92.6275   12.2448 C.ar    1  UNL1        0.0104
     19 C          66.5824   93.9673   10.1480 C.3     1  UNL1        0.0190
     20 C          65.6632   95.1061   10.4770 C.3     1  UNL1        0.0044
     21 C          67.5016   92.8285    9.8190 C.3     1  UNL1        0.0044
     22 C          67.5307   94.9236    9.4874 C.3     1  UNL1        0.0044
     23 O          63.1950   83.8012   15.7531 O.3     1  UNL1       -0.4533
     24 C          63.0811   83.1860   14.3898 C.ar    1  UNL1        0.1485
     25 C          63.0536   81.6937   14.2404 C.ar    1  UNL1        0.0582
     26 C          62.9397   81.0784   12.8771 C.ar    1  UNL1        0.1021
     27 N          62.8532   81.9555   11.6633 N.ar    1  UNL1       -0.2406
     28 C          62.8807   83.4478   11.8128 C.ar    1  UNL1        0.1181
     29 C          62.9946   84.0630   13.1760 C.ar    1  UNL1        0.0597
     30 C          62.7943   84.3249   10.5989 C.ar    1  UNL1        0.1585
     31 N          63.4986   84.0968    9.2944 N.ar    1  UNL1       -0.2239
     32 C          63.1280   85.2150    8.3658 C.ar    1  UNL1        0.1190
     33 C          62.1946   86.1342    9.0965 C.ar    1  UNL1        0.0945
     34 N          61.9883   85.5841   10.4767 N.ar    1  UNL1       -0.3349
     35 H          61.4233   85.9799   11.1790 H       1  UNL1        0.1675
@<TRIPOS>BOND
     1     1     2    1
     2     2     3   ar
     3     3    11    1
     4    11    13    1
     5    13    14   ar
     6    14    15   ar
     7    15    16   ar
     8    16    17   ar
     9    17    19    1
    10    19    20    1
    11    19    21    1
    12    19    22    1
    13    17    18   ar
    14     3     4   ar
    15     4     5   ar
    16     5     6   ar
    17     6     7   ar
    18     7    23    1
    19    23    24    1
    20    24    25   ar
    21    25    26   ar
    22    26    27   ar
    23    27    28   ar
    24    28    30    1
    25    30    31   ar
    26    31    32   ar
    27    32    33   ar
    28    33    34   ar
    29    28    29   ar
    30     7     8   ar
    31     8     9   ar
    32     9    10   ar
    33    10     2   ar
    34    18    13   ar
    35    10     5   ar
    36    29    24   ar
    37    34    30   ar
    38    11    12    1
    39    34    35    1
@<TRIPOS>MOLECULE
*****
 35 39 0 0 0
SMALL
GASTEIGER

@<TRIPOS>ATOM
      1 C          60.3755   86.1979    8.0710 C.3     1  UNL1        0.1332
      2 N          60.4721   87.6152    8.5528 N.ar    1  UNL1       -0.2975
      3 C          59.8079   88.8061    7.9279 C.ar    1  UNL1        0.2017
      4 N          60.1752   90.0172    8.7330 N.ar    1  UNL1       -0.2134
      5 C          61.0665   89.5748    9.8555 C.ar    1  UNL1        0.1030
      6 C          61.7347   90.3320   10.9646 C.ar    1  UNL1        0.0581
      7 C          62.5864   89.6046   11.9623 C.ar    1  UNL1        0.1469
      8 C          62.7699   88.1200   11.8509 C.ar    1  UNL1        0.0391
      9 C          62.1017   87.3629   10.7418 C.ar    1  UNL1        0.0219
     10 C          61.2500   88.0903    9.7441 C.ar    1  UNL1        0.0801
     11 N          58.9303   88.7889    6.7115 N.pl3   1  UNL1       -0.2839
     12 H          58.3880   87.9931    6.5070 H       1  UNL1        0.1550
     13 C          58.8791   89.9841    5.8067 C.ar    1  UNL1        0.0501
     14 C          57.5918   90.7325    5.6248 C.ar    1  UNL1        0.0147
     15 C          57.5406   91.9278    4.7200 C.ar    1  UNL1        0.0009
     16 C          58.7765   92.3747    3.9971 C.ar    1  UNL1       -0.0042
     17 C          60.0637   91.6264    4.1789 C.ar    1  UNL1       -0.0216
     18 C          60.1150   90.4311    5.0838 C.ar    1  UNL1        0.0104
     19 C          61.2997   92.0734    3.4560 C.3     1  UNL1        0.0190
     20 C          62.0874   90.9917    4.1339 C.3     1  UNL1        0.0044
     21 C          60.5120   93.1550    2.7781 C.3     1  UNL1        0.0044
     22 C          62.5356   92.5203    2.7330 C.3     1  UNL1        0.0044
     23 O          63.2547   90.3618   13.0714 O.3     1  UNL1       -0.4533
     24 C          64.4115   91.2679   12.7702 C.ar    1  UNL1        0.1485
     25 C          64.5462   91.8852   11.4097 C.ar    1  UNL1        0.0582
     26 C          65.7030   92.7913   11.1084 C.ar    1  UNL1        0.1021
     27 N          66.7252   93.0801   12.1677 N.ar    1  UNL1       -0.2406
     28 C          66.5904   92.4628   13.5281 C.ar    1  UNL1        0.1181
     29 C          65.4336   91.5567   13.8294 C.ar    1  UNL1        0.0597
     30 C          67.6125   92.7516   14.5874 C.ar    1  UNL1        0.1585
     31 N          68.0450   94.1121   15.0477 N.ar    1  UNL1       -0.2239
     32 C          69.0814   93.9319   16.1170 C.ar    1  UNL1        0.1190
     33 C          69.2894   92.4600   16.3177 C.ar    1  UNL1        0.0945
     34 N          68.3815   91.7305   15.3722 N.ar    1  UNL1       -0.3349
     35 H          68.3040   90.7531   15.2826 H       1  UNL1        0.1675
@<TRIPOS>BOND
     1     1     2    1
     2     2     3   ar
     3     3    11    1
     4    11    13    1
     5    13    14   ar
     6    14    15   ar
     7    15    16   ar
     8    16    17   ar
     9    17    19    1
    10    19    20    1
    11    19    21    1
    12    19    22    1
    13    17    18   ar
    14     3     4   ar
    15     4     5   ar
    16     5     6   ar
    17     6     7   ar
    18     7    23    1
    19    23    24    1
    20    24    25   ar
    21    25    26   ar
    22    26    27   ar
    23    27    28   ar
    24    28    30    1
    25    30    31   ar
    26    31    32   ar
    27    32    33   ar
    28    33    34   ar
    29    28    29   ar
    30     7     8   ar
    31     8     9   ar
    32     9    10   ar
    33    10     2   ar
    34    18    13   ar
    35    10     5   ar
    36    29    24   ar
    37    34    30   ar
    38    11    12    1
    39    34    35    1
