@<TRIPOS>MOLECULE
*****
 37 41 0 0 0
SMALL
GASTEIGER

@<TRIPOS>ATOM
      1 C          62.8016   86.7063   12.5919 C.ar    1  UNL1        0.0502
      2 C          63.5211   87.3446   13.7428 C.ar    1  UNL1        0.0143
      3 C          64.0760   88.7312   13.6043 C.ar    1  UNL1       -0.0030
      4 C          63.9113   89.4796   12.3147 C.ar    1  UNL1       -0.0223
      5 C          63.1918   88.8413   11.1638 C.ar    1  UNL1       -0.0034
      6 C          62.6369   87.4547   11.3023 C.ar    1  UNL1        0.0089
      7 C          64.4663   90.8663   12.1762 C.3     1  UNL1        0.0251
      8 C          64.2800   91.6242   10.8953 C.3     1  UNL1        0.0217
      9 C          64.8349   93.0109   10.7568 C.3     1  UNL1        0.0728
     10 N          65.5762   93.6397   11.8993 N.3     1  UNL1       -0.2677
     11 C          65.7625   92.8817   13.1802 C.3     1  UNL1        0.0728
     12 C          65.2075   91.4951   13.3187 C.3     1  UNL1        0.0217
     13 C          66.1311   95.0263   11.7608 C.3     1  UNL1        0.1186
     14 C          66.2960   95.6357   10.4001 C.ar    1  UNL1        0.0752
     15 C          67.6410   95.6351    9.7361 C.ar    1  UNL1        0.0161
     16 C          67.8059   96.2445    8.3754 C.ar    1  UNL1        0.0028
     17 C          66.6258   96.8545    7.6788 C.ar    1  UNL1        0.0207
     18 C          65.2808   96.8551    8.3428 C.ar    1  UNL1        0.0985
     19 N          65.1159   96.2457    9.7035 N.ar    1  UNL1       -0.2468
     20 C          61.9173   86.8163   10.1513 C.2     1  UNL1       -0.0253
     21 C          62.6346   85.8400    9.2669 C.2     1  UNL1       -0.0303
     22 C          61.9151   85.2016    8.1160 C.3     1  UNL1        0.0257
     23 C          60.4781   85.5396    7.8494 C.3     1  UNL1        0.0050
     24 C          59.7607   86.5159    8.7338 C.3     1  UNL1        0.0050
     25 C          60.4804   87.1542    9.8848 C.3     1  UNL1        0.0261
     26 C          63.1446   84.1898   13.1392 C.2     1  UNL1        0.2837
     27 O          64.5976   84.4467   13.4096 O.2     1  UNL1       -0.2665
     28 N          62.2466   85.3196   12.7304 N.am    1  UNL1       -0.2779
     29 H          61.2930   85.1510   12.5529 H       1  UNL1        0.1553
     30 C          61.1188   80.9484   13.8132 C.ar    1  UNL1        0.1469
     31 C          62.3529   80.3901   13.1687 C.ar    1  UNL1        0.1282
     32 N          63.2620   81.5364   12.8378 N.ar    1  UNL1       -0.2205
     33 C          62.5897   82.8031   13.2778 C.ar    1  UNL1        0.1958
     34 N          61.2652   82.4397   13.8806 N.ar    1  UNL1       -0.3257
     35 H          60.6074   83.0694   14.2547 H       1  UNL1        0.1682
     36 N          58.7701   79.3609   14.7949 N.1     1  UNL1       -0.1893
     37 C          59.9444   80.1546   14.3041 C.1     1  UNL1        0.1194
@<TRIPOS>BOND
     1    36    37    3
     2    37    30    1
     3    30    31   ar
     4    31    32   ar
     5    32    33   ar
     6    33    26    1
     7    26    27    2
     8    26    28   am
     9    28     1    1
    10     1     2   ar
    11     2     3   ar
    12     3     4   ar
    13     4     7    1
    14     7     8    1
    15     8     9    1
    16     9    10    1
    17    10    13    1
    18    13    14    1
    19    14    15   ar
    20    15    16   ar
    21    16    17   ar
    22    17    18   ar
    23    18    19   ar
    24    10    11    1
    25    11    12    1
    26     4     5   ar
    27     5     6   ar
    28     6    20    1
    29    20    21    2
    30    21    22    1
    31    22    23    1
    32    23    24    1
    33    24    25    1
    34    33    34   ar
    35    34    30   ar
    36     6     1   ar
    37    25    20    1
    38    12     7    1
    39    19    14   ar
    40    28    29    1
    41    34    35    1
@<TRIPOS>MOLECULE
*****
 37 41 0 0 0
SMALL
GASTEIGER

@<TRIPOS>ATOM
      1 C          60.6020   87.5255    9.7478 C.ar    1  UNL1        0.0502
      2 C          59.6809   87.0513    8.6630 C.ar    1  UNL1        0.0143
      3 C          59.3867   87.9369    7.4887 C.ar    1  UNL1       -0.0030
      4 C          60.0135   89.2967    7.3991 C.ar    1  UNL1       -0.0223
      5 C          60.9346   89.7709    8.4839 C.ar    1  UNL1       -0.0034
      6 C          61.2288   88.8853    9.6582 C.ar    1  UNL1        0.0089
      7 C          59.7193   90.1823    6.2247 C.3     1  UNL1        0.0251
      8 C          58.3070   90.5934    5.9306 C.3     1  UNL1        0.0217
      9 C          58.0128   91.4790    4.7562 C.3     1  UNL1        0.0728
     10 N          59.1308   91.9535    3.8759 N.3     1  UNL1       -0.2677
     11 C          60.5431   91.5424    4.1701 C.3     1  UNL1        0.0728
     12 C          60.8373   90.6569    5.3445 C.3     1  UNL1        0.0217
     13 C          58.8366   92.8391    2.7016 C.3     1  UNL1        0.1186
     14 C          59.9267   93.1841    1.7308 C.ar    1  UNL1        0.0752
     15 C          60.1310   92.3463    0.5035 C.ar    1  UNL1        0.0161
     16 C          61.2212   92.6914   -0.4674 C.ar    1  UNL1        0.0028
     17 C          62.1071   93.8743   -0.2108 C.ar    1  UNL1        0.0207
     18 C          61.9029   94.7121    1.0165 C.ar    1  UNL1        0.0985
     19 N          60.8127   94.3671    1.9873 N.ar    1  UNL1       -0.2468
     20 C          62.1499   89.3595   10.7431 C.2     1  UNL1       -0.0253
     21 C          62.6064   90.7881   10.7680 C.2     1  UNL1       -0.0303
     22 C          63.5275   91.2623   11.8528 C.3     1  UNL1        0.0257
     23 C          63.9920   90.3079   12.9127 C.3     1  UNL1        0.0050
     24 C          63.5355   88.8793   12.8877 C.3     1  UNL1        0.0050
     25 C          62.6144   88.4051   11.8029 C.3     1  UNL1        0.0261
     26 C          61.9699   85.5970   10.8246 C.2     1  UNL1        0.2837
     27 O          62.7493   85.4396    9.5526 O.2     1  UNL1       -0.2665
     28 N          60.8962   86.6399   10.9222 N.am    1  UNL1       -0.2779
     29 H          60.3847   86.7432   11.7570 H       1  UNL1        0.1553
     30 C          62.7517   82.7546   13.3494 C.ar    1  UNL1        0.1469
     31 C          62.6824   83.9425   14.2627 C.ar    1  UNL1        0.1282
     32 N          62.3811   85.1519   13.4281 N.ar    1  UNL1       -0.2205
     33 C          62.2642   84.7114   11.9990 C.ar    1  UNL1        0.1958
     34 N          62.4932   83.2298   11.9504 N.ar    1  UNL1       -0.3257
     35 H          62.4767   82.6679   11.1422 H       1  UNL1        0.1682
     36 N          63.3093   79.9251   14.1760 N.1     1  UNL1       -0.1893
     37 C          63.0305   81.3398   13.7627 C.1     1  UNL1        0.1194
@<TRIPOS>BOND
     1    36    37    3
     2    37    30    1
     3    30    31   ar
     4    31    32   ar
     5    32    33   ar
     6    33    26    1
     7    26    27    2
     8    26    28   am
     9    28     1    1
    10     1     2   ar
    11     2     3   ar
    12     3     4   ar
    13     4     7    1
    14     7     8    1
    15     8     9    1
    16     9    10    1
    17    10    13    1
    18    13    14    1
    19    14    15   ar
    20    15    16   ar
    21    16    17   ar
    22    17    18   ar
    23    18    19   ar
    24    10    11    1
    25    11    12    1
    26     4     5   ar
    27     5     6   ar
    28     6    20    1
    29    20    21    2
    30    21    22    1
    31    22    23    1
    32    23    24    1
    33    24    25    1
    34    33    34   ar
    35    34    30   ar
    36     6     1   ar
    37    25    20    1
    38    12     7    1
    39    19    14   ar
    40    28    29    1
    41    34    35    1
@<TRIPOS>MOLECULE
*****
 37 41 0 0 0
SMALL
GASTEIGER

@<TRIPOS>ATOM
      1 C          60.5433   94.2438    0.1531 C.ar    1  UNL1        0.0502
      2 C          59.2105   93.5745    0.3132 C.ar    1  UNL1        0.0143
      3 C          58.9194   92.7678    1.5438 C.ar    1  UNL1       -0.0030
      4 C          59.9611   92.6304    2.6143 C.ar    1  UNL1       -0.0223
      5 C          61.2939   93.2996    2.4542 C.ar    1  UNL1       -0.0034
      6 C          61.5850   94.1063    1.2236 C.ar    1  UNL1        0.0089
      7 C          59.6700   91.8236    3.8450 C.3     1  UNL1        0.0251
      8 C          58.2609   91.6983    4.3436 C.3     1  UNL1        0.0217
      9 C          57.9697   90.8915    5.5743 C.3     1  UNL1        0.0728
     10 N          59.0877   90.2101    6.3062 N.3     1  UNL1       -0.2677
     11 C          60.4969   90.3355    5.8075 C.3     1  UNL1        0.0728
     12 C          60.7880   91.1422    4.5769 C.3     1  UNL1        0.0217
     13 C          58.7966   89.4034    7.5368 C.3     1  UNL1        0.1186
     14 C          59.8378   88.4754    8.0889 C.ar    1  UNL1        0.0752
     15 C          60.8124   88.9682    9.1171 C.ar    1  UNL1        0.0161
     16 C          61.8536   88.0401    9.6692 C.ar    1  UNL1        0.0028
     17 C          61.9201   86.6193    9.1929 C.ar    1  UNL1        0.0207
     18 C          60.9455   86.1265    8.1647 C.ar    1  UNL1        0.0985
     19 N          59.9044   87.0545    7.6126 N.ar    1  UNL1       -0.2468
     20 C          62.9179   94.7757    1.0634 C.2     1  UNL1       -0.0253
     21 C          63.1104   96.1862    1.5359 C.2     1  UNL1       -0.0303
     22 C          64.4432   96.8555    1.3758 C.3     1  UNL1        0.0257
     23 C          65.5835   96.1143    0.7431 C.3     1  UNL1        0.0050
     24 C          65.3910   94.7037    0.2706 C.3     1  UNL1        0.0050
     25 C          64.0582   94.0344    0.4308 C.3     1  UNL1        0.0261
     26 C          61.5263   94.4131   -2.2459 C.2     1  UNL1        0.2837
     27 O          61.9269   92.9689   -2.1836 O.2     1  UNL1       -0.2665
     28 N          60.8345   95.0506   -1.0775 N.am    1  UNL1       -0.2779
     29 H          60.5715   95.9984   -1.1184 H       1  UNL1        0.1553
     30 C          62.9644   96.1893   -5.3831 C.ar    1  UNL1        0.1469
     31 C          61.5666   96.7330   -5.3575 C.ar    1  UNL1        0.1282
     32 N          60.8578   96.1338   -4.1791 N.ar    1  UNL1       -0.2205
     33 C          61.8174   95.2198   -3.4765 C.ar    1  UNL1        0.1958
     34 N          63.1194   95.2541   -4.2206 N.ar    1  UNL1       -0.3257
     35 H          63.9328   94.7511   -3.9871 H       1  UNL1        0.1682
     36 N          65.0787   96.8554   -7.4045 N.1     1  UNL1       -0.1893
     37 C          64.0215   96.5223   -6.3938 C.1     1  UNL1        0.1194
@<TRIPOS>BOND
     1    36    37    3
     2    37    30    1
     3    30    31   ar
     4    31    32   ar
     5    32    33   ar
     6    33    26    1
     7    26    27    2
     8    26    28   am
     9    28     1    1
    10     1     2   ar
    11     2     3   ar
    12     3     4   ar
    13     4     7    1
    14     7     8    1
    15     8     9    1
    16     9    10    1
    17    10    13    1
    18    13    14    1
    19    14    15   ar
    20    15    16   ar
    21    16    17   ar
    22    17    18   ar
    23    18    19   ar
    24    10    11    1
    25    11    12    1
    26     4     5   ar
    27     5     6   ar
    28     6    20    1
    29    20    21    2
    30    21    22    1
    31    22    23    1
    32    23    24    1
    33    24    25    1
    34    33    34   ar
    35    34    30   ar
    36     6     1   ar
    37    25    20    1
    38    12     7    1
    39    19    14   ar
    40    28    29    1
    41    34    35    1
@<TRIPOS>MOLECULE
*****
 37 41 0 0 0
SMALL
GASTEIGER

@<TRIPOS>ATOM
      1 C          59.2765   92.3976    3.4641 C.ar    1  UNL1        0.0502
      2 C          58.0974   91.9264    4.2625 C.ar    1  UNL1        0.0143
      3 C          58.2989   90.9885    5.4156 C.ar    1  UNL1       -0.0030
      4 C          59.6797   90.5218    5.7703 C.ar    1  UNL1       -0.0223
      5 C          60.8588   90.9930    4.9719 C.ar    1  UNL1       -0.0034
      6 C          60.6572   91.9309    3.8188 C.ar    1  UNL1        0.0089
      7 C          59.8812   89.5839    6.9235 C.3     1  UNL1        0.0251
      8 C          60.5990   90.0522    8.1545 C.3     1  UNL1        0.0217
      9 C          60.8006   89.1143    9.3077 C.3     1  UNL1        0.0728
     10 N          60.2843   87.7081    9.2298 N.3     1  UNL1       -0.2677
     11 C          59.5665   87.2398    7.9987 C.3     1  UNL1        0.0728
     12 C          59.3649   88.1777    6.8456 C.3     1  UNL1        0.0217
     13 C          60.4858   86.7702   10.3829 C.3     1  UNL1        0.1186
     14 C          61.6134   85.7814   10.3571 C.ar    1  UNL1        0.0752
     15 C          62.3657   85.5347    9.0830 C.ar    1  UNL1        0.0161
     16 C          63.4934   84.5459    9.0573 C.ar    1  UNL1        0.0028
     17 C          63.8687   83.8038   10.3056 C.ar    1  UNL1        0.0207
     18 C          63.1165   84.0504   11.5797 C.ar    1  UNL1        0.0985
     19 N          61.9889   85.0392   11.6055 N.ar    1  UNL1       -0.2468
     20 C          61.8364   92.4021    3.0202 C.2     1  UNL1       -0.0253
     21 C          61.8061   93.7496    2.3618 C.2     1  UNL1       -0.0303
     22 C          62.9852   94.2208    1.5634 C.3     1  UNL1        0.0257
     23 C          64.1947   93.3446    1.4233 C.3     1  UNL1        0.0050
     24 C          64.2250   91.9972    2.0817 C.3     1  UNL1        0.0050
     25 C          63.0458   91.5260    2.8802 C.3     1  UNL1        0.0261
     26 C          59.2560   92.8452    0.9049 C.2     1  UNL1        0.2837
     27 O          59.6387   91.4169    0.6521 O.2     1  UNL1       -0.2665
     28 N          59.0750   93.3355    2.3109 N.am    1  UNL1       -0.2779
     29 H          58.8238   94.2728    2.4768 H       1  UNL1        0.1553
     30 C          58.0012   95.1560   -1.9500 C.ar    1  UNL1        0.1469
     31 C          59.4876   95.2965   -2.0956 C.ar    1  UNL1        0.1282
     32 N          60.1385   94.4479   -1.0438 N.ar    1  UNL1       -0.2205
     33 C          59.0545   93.7830   -0.2482 C.ar    1  UNL1        0.1958
     34 N          57.7336   94.2206   -0.8083 N.ar    1  UNL1       -0.3257
     35 H          56.8467   93.9427   -0.4836 H       1  UNL1        0.1682
     36 N          55.9278   96.5083   -3.6448 N.1     1  UNL1       -0.1893
     37 C          56.9645   95.8321   -2.7974 C.1     1  UNL1        0.1194
@<TRIPOS>BOND
     1    36    37    3
     2    37    30    1
     3    30    31   ar
     4    31    32   ar
     5    32    33   ar
     6    33    26    1
     7    26    27    2
     8    26    28   am
     9    28     1    1
    10     1     2   ar
    11     2     3   ar
    12     3     4   ar
    13     4     7    1
    14     7     8    1
    15     8     9    1
    16     9    10    1
    17    10    13    1
    18    13    14    1
    19    14    15   ar
    20    15    16   ar
    21    16    17   ar
    22    17    18   ar
    23    18    19   ar
    24    10    11    1
    25    11    12    1
    26     4     5   ar
    27     5     6   ar
    28     6    20    1
    29    20    21    2
    30    21    22    1
    31    22    23    1
    32    23    24    1
    33    24    25    1
    34    33    34   ar
    35    34    30   ar
    36     6     1   ar
    37    25    20    1
    38    12     7    1
    39    19    14   ar
    40    28    29    1
    41    34    35    1
