@<TRIPOS>MOLECULE
*****
 35 38 0 0 0
SMALL
GASTEIGER

@<TRIPOS>ATOM
      1 C          62.8629   88.2258   12.0712 C.2     1  UNL1        0.1349
      2 C          63.7939   88.0673   13.2365 C.2     1  UNL1        0.1353
      3 N          64.5939   89.2396   13.7222 N.pl3   1  UNL1       -0.1998
      4 C          64.4629   90.5703   13.0425 C.2     1  UNL1        0.3440
      5 N          63.5319   90.7288   11.8772 N.2     1  UNL1       -0.0630
      6 C          62.7319   89.5566   11.3915 C.3     1  UNL1        0.2210
      7 C          62.2670   90.6069   10.4268 C.3     1  UNL1        0.0631
      8 H          65.2050   89.1355   14.4871 H       1  UNL1        0.2983
      9 C          61.7704   88.7492   10.5707 C.ar    1  UNL1        0.0261
     10 C          62.2674   87.9540    9.4000 C.ar    1  UNL1        0.0024
     11 C          61.3058   87.1466    8.5792 C.ar    1  UNL1        0.0295
     12 C          59.8473   87.1345    8.9293 C.ar    1  UNL1        0.1401
     13 F          58.8857   86.3271    8.1085 F       1  UNL1       -0.2042
     14 C          59.3503   87.9296   10.1001 C.ar    1  UNL1        0.0295
     15 C          60.3119   88.7370   10.9208 C.ar    1  UNL1        0.0024
     16 C          65.2629   91.7425   13.5282 C.ar    1  UNL1        0.1931
     17 N          65.6159   92.9613   12.7283 N.ar    1  UNL1       -0.2297
     18 C          66.4215   93.8738   13.6048 C.ar    1  UNL1        0.1067
     19 C          66.5665   93.2190   14.9465 C.ar    1  UNL1        0.0577
     20 S          65.8504   91.9018   14.8991 S.2     1  UNL1       -0.0586
     21 C          62.0629   87.0536   11.5855 C.2     1  UNL1        0.3446
     22 O          61.2973   86.8409   11.6496 O.2     1  UNL1       -0.2450
     23 C          62.6493   84.5444   11.2539 C.3     1  UNL1        0.2559
     24 O          62.7281   85.9691   10.7910 O.3     1  UNL1       -0.4414
     25 C          63.9249   86.7366   13.9162 C.3     1  UNL1        0.1407
     26 N          63.5194   86.5847   15.3523 N.3     1  UNL1       -0.2578
     27 C          63.4413   87.6862   16.3676 C.3     1  UNL1        0.1401
     28 C          62.9943   87.0870   17.6681 C.3     1  UNL1        0.2801
     29 F          63.1038   88.4949   18.1736 F       1  UNL1       -0.2028
     30 F          62.5703   86.7822   19.0742 F       1  UNL1       -0.2028
     31 C          62.7962   85.6152   17.4565 C.3     1  UNL1        0.0897
     32 C          63.1207   85.3049   16.0253 C.3     1  UNL1        0.1003
     33 C          63.0576   83.9521   15.3803 C.2     1  UNL1        0.0650
     34 O          61.8240   83.5323   14.6372 O.co2   1  UNL1       -0.5478
     35 O          64.2279   83.0190   15.4784 O.co2   1  UNL1       -0.5478
@<TRIPOS>UNITY_ATOM_ATTR
34 1
charge -1
@<TRIPOS>BOND
     1    23    24    1
     2    24    21    1
     3    21    22    2
     4    21     1    1
     5     1     2    2
     6     2    25    1
     7    25    26    1
     8    26    27    1
     9    27    28    1
    10    28    29    1
    11    28    30    1
    12    28    31    1
    13    31    32    1
    14    32    33    1
    15    33    34   ar
    16    33    35   ar
    17     2     3    1
    18     3     4    1
    19     4    16    1
    20    16    17   ar
    21    17    18   ar
    22    18    19   ar
    23    19    20   ar
    24     4     5    2
    25     5     6    1
    26     6     7    1
    27     6     9    1
    28     9    10   ar
    29    10    11   ar
    30    11    12   ar
    31    12    13    1
    32    12    14   ar
    33    14    15   ar
    34     6     1    1
    35    15     9   ar
    36    32    26    1
    37    20    16   ar
    38     3     8    1
@<TRIPOS>MOLECULE
*****
 35 38 0 0 0
SMALL
GASTEIGER

@<TRIPOS>ATOM
      1 C          63.1818   85.3715   12.8839 C.2     1  UNL1        0.1349
      2 C          63.0653   86.6303   12.0766 C.2     1  UNL1        0.1353
      3 N          63.3525   87.9583   12.7123 N.pl3   1  UNL1       -0.1998
      4 C          63.7561   88.0274   14.1553 C.2     1  UNL1        0.3440
      5 N          63.8726   86.7686   14.9626 N.2     1  UNL1       -0.0630
      6 C          63.5854   85.4407   14.3269 C.3     1  UNL1        0.2210
      7 C          63.9311   84.9949   15.7168 C.3     1  UNL1        0.0631
      8 H          63.2760   88.7845   12.1824 H       1  UNL1        0.2983
      9 C          63.4183   83.9579   14.1740 C.ar    1  UNL1        0.0261
     10 C          62.0915   83.3192   14.4596 C.ar    1  UNL1        0.0024
     11 C          61.9245   81.8363   14.3067 C.ar    1  UNL1        0.0295
     12 C          63.0844   80.9923   13.8682 C.ar    1  UNL1        0.1401
     13 F          62.9173   79.5094   13.7152 F       1  UNL1       -0.2042
     14 C          64.4112   81.6310   13.5826 C.ar    1  UNL1        0.0295
     15 C          64.5782   83.1137   13.7355 C.ar    1  UNL1        0.0024
     16 C          64.0433   89.3554   14.7910 C.ar    1  UNL1        0.1931
     17 N          63.3799   89.9075   16.0178 N.ar    1  UNL1       -0.2297
     18 C          63.9708   91.2577   16.2965 C.ar    1  UNL1        0.1067
     19 C          64.9995   91.5401   15.2419 C.ar    1  UNL1        0.0577
     20 S          65.0442   90.3644   14.3115 S.2     1  UNL1       -0.0586
     21 C          62.8946   84.0436   12.2483 C.2     1  UNL1        0.3446
     22 O          62.2550   83.5685   12.2229 O.2     1  UNL1       -0.2450
     23 C          63.7985   83.1671    9.9757 C.3     1  UNL1        0.2559
     24 O          63.9600   83.3452   11.4563 O.3     1  UNL1       -0.4414
     25 C          62.6616   86.5612   10.6336 C.3     1  UNL1        0.1407
     26 N          61.6903   87.5600   10.0778 N.3     1  UNL1       -0.2578
     27 C          61.3820   88.9079   10.6594 C.3     1  UNL1        0.1401
     28 C          60.3579   89.5673    9.7840 C.3     1  UNL1        0.2801
     29 F          60.4734   90.6947   10.7665 F       1  UNL1       -0.2028
     30 F          59.3579   90.4623    9.1139 F       1  UNL1       -0.2028
     31 C          60.0333   88.6268    8.6613 C.3     1  UNL1        0.0897
     32 C          60.8567   87.3863    8.8430 C.3     1  UNL1        0.1003
     33 C          60.8482   86.1834    7.9470 C.2     1  UNL1        0.0650
     34 O          59.5672   85.7310    7.3111 O.co2   1  UNL1       -0.5478
     35 O          62.1206   85.4328    7.6868 O.co2   1  UNL1       -0.5478
@<TRIPOS>UNITY_ATOM_ATTR
34 1
charge -1
@<TRIPOS>BOND
     1    23    24    1
     2    24    21    1
     3    21    22    2
     4    21     1    1
     5     1     2    2
     6     2    25    1
     7    25    26    1
     8    26    27    1
     9    27    28    1
    10    28    29    1
    11    28    30    1
    12    28    31    1
    13    31    32    1
    14    32    33    1
    15    33    34   ar
    16    33    35   ar
    17     2     3    1
    18     3     4    1
    19     4    16    1
    20    16    17   ar
    21    17    18   ar
    22    18    19   ar
    23    19    20   ar
    24     4     5    2
    25     5     6    1
    26     6     7    1
    27     6     9    1
    28     9    10   ar
    29    10    11   ar
    30    11    12   ar
    31    12    13    1
    32    12    14   ar
    33    14    15   ar
    34     6     1    1
    35    15     9   ar
    36    32    26    1
    37    20    16   ar
    38     3     8    1
@<TRIPOS>MOLECULE
*****
 35 38 0 0 0
SMALL
GASTEIGER

@<TRIPOS>ATOM
      1 C          63.1103   85.0081   12.7846 C.2     1  UNL1        0.1349
      2 C          63.1229   86.2655   11.9669 C.2     1  UNL1        0.1353
      3 N          63.3627   87.5893   12.6302 N.pl3   1  UNL1       -0.1998
      4 C          63.5900   87.6557   14.1114 C.2     1  UNL1        0.3440
      5 N          63.5774   86.3983   14.9292 N.2     1  UNL1       -0.0630
      6 C          63.3376   85.0745   14.2658 C.3     1  UNL1        0.2210
      7 C          63.5013   84.6273   15.6882 C.3     1  UNL1        0.0631
      8 H          63.3710   88.4145   12.0935 H       1  UNL1        0.2983
      9 C          63.1546   83.5954   14.0965 C.ar    1  UNL1        0.0261
     10 C          64.3347   82.7249   13.7811 C.ar    1  UNL1        0.0024
     11 C          64.1516   81.2457   13.6118 C.ar    1  UNL1        0.0295
     12 C          62.7884   80.6371   13.7579 C.ar    1  UNL1        0.1401
     13 F          62.6054   79.1579   13.5886 F       1  UNL1       -0.2042
     14 C          61.6083   81.5077   14.0733 C.ar    1  UNL1        0.0295
     15 C          61.7914   82.9868   14.2426 C.ar    1  UNL1        0.0024
     16 C          63.8298   88.9795   14.7748 C.ar    1  UNL1        0.1931
     17 N          63.2251   89.4401   16.0678 N.ar    1  UNL1       -0.2297
     18 C          63.7380   90.8204   16.3538 C.ar    1  UNL1        0.1067
     19 C          64.6598   91.2128   15.2374 C.ar    1  UNL1        0.0577
     20 S          64.7165   90.0751   14.2615 S.2     1  UNL1       -0.0586
     21 C          62.8705   83.6843   12.1213 C.2     1  UNL1        0.3446
     22 O          62.2279   83.2232   12.0216 O.2     1  UNL1       -0.2450
     23 C          64.1126   82.9388    9.9646 C.3     1  UNL1        0.2559
     24 O          64.0056   82.9599   11.4606 O.3     1  UNL1       -0.4414
     25 C          62.8956   86.1991   10.4856 C.3     1  UNL1        0.1407
     26 N          61.6716   86.8250    9.8858 N.3     1  UNL1       -0.2578
     27 C          60.7258   86.1676    8.9249 C.3     1  UNL1        0.1401
     28 C          59.6480   87.1546    8.5869 C.3     1  UNL1        0.2801
     29 F          59.1200   86.0451    7.7267 F       1  UNL1       -0.2028
     30 F          58.4599   87.9096    8.0690 F       1  UNL1       -0.2028
     31 C          59.9277   88.4220    9.3389 C.3     1  UNL1        0.0897
     32 C          61.1783   88.2183   10.1417 C.3     1  UNL1        0.1003
     33 C          61.8226   89.2303   11.0422 C.2     1  UNL1        0.0650
     34 O          63.0857   89.9175   10.6154 O.co2   1  UNL1       -0.5478
     35 O          61.2037   89.5550   12.3694 O.co2   1  UNL1       -0.5478
@<TRIPOS>UNITY_ATOM_ATTR
34 1
charge -1
@<TRIPOS>BOND
     1    23    24    1
     2    24    21    1
     3    21    22    2
     4    21     1    1
     5     1     2    2
     6     2    25    1
     7    25    26    1
     8    26    27    1
     9    27    28    1
    10    28    29    1
    11    28    30    1
    12    28    31    1
    13    31    32    1
    14    32    33    1
    15    33    34   ar
    16    33    35   ar
    17     2     3    1
    18     3     4    1
    19     4    16    1
    20    16    17   ar
    21    17    18   ar
    22    18    19   ar
    23    19    20   ar
    24     4     5    2
    25     5     6    1
    26     6     7    1
    27     6     9    1
    28     9    10   ar
    29    10    11   ar
    30    11    12   ar
    31    12    13    1
    32    12    14   ar
    33    14    15   ar
    34     6     1    1
    35    15     9   ar
    36    32    26    1
    37    20    16   ar
    38     3     8    1
@<TRIPOS>MOLECULE
*****
 35 38 0 0 0
SMALL
GASTEIGER

@<TRIPOS>ATOM
      1 C          63.3558   88.1416   13.0015 C.2     1  UNL1        0.1349
      2 C          63.1215   86.7564   12.4758 C.2     1  UNL1        0.1353
      3 N          62.2286   86.5457   11.2890 N.pl3   1  UNL1       -0.1998
      4 C          61.5702   87.7201   10.6279 C.2     1  UNL1        0.3440
      5 N          61.8045   89.1053   11.1536 N.2     1  UNL1       -0.0630
      6 C          62.6974   89.3160   12.3404 C.3     1  UNL1        0.2210
      7 C          62.3012   90.7348   12.0573 C.3     1  UNL1        0.0631
      8 H          62.0748   85.6366   10.9440 H       1  UNL1        0.2983
      9 C          63.4526   90.0195   13.4288 C.ar    1  UNL1        0.0261
     10 C          62.8605   90.1289   14.8027 C.ar    1  UNL1        0.0024
     11 C          63.6158   90.8324   15.8911 C.ar    1  UNL1        0.0295
     12 C          64.9631   91.4266   15.6056 C.ar    1  UNL1        0.1401
     13 F          65.7184   92.1302   16.6941 F       1  UNL1       -0.2042
     14 C          65.5552   91.3173   14.2317 C.ar    1  UNL1        0.0295
     15 C          64.8000   90.6137   13.1434 C.ar    1  UNL1        0.0024
     16 C          60.6774   87.5094    9.4411 C.ar    1  UNL1        0.1931
     17 N          60.3356   86.1883    8.8184 N.ar    1  UNL1       -0.2297
     18 C          59.4165   86.4452    7.6611 C.ar    1  UNL1        0.1067
     19 C          59.1903   87.9251    7.5685 C.ar    1  UNL1        0.0577
     20 S          59.9696   88.5828    8.6686 S.2     1  UNL1       -0.0586
     21 C          64.2486   88.3523   14.1883 C.2     1  UNL1        0.3446
     22 O          65.0011   88.5997   14.2782 O.2     1  UNL1       -0.2450
     23 C          63.8061   86.6833   16.1295 C.3     1  UNL1        0.2559
     24 O          63.7372   88.0735   15.5705 O.3     1  UNL1       -0.4414
     25 C          63.7799   85.5819   13.1369 C.3     1  UNL1        0.1407
     26 N          63.1421   84.2262   13.0655 N.3     1  UNL1       -0.2578
     27 C          62.3862   83.5482   14.1695 C.3     1  UNL1        0.1401
     28 C          61.9250   82.2134   13.6638 C.3     1  UNL1        0.2801
     29 F          61.3318   82.0752   15.0345 F       1  UNL1       -0.2028
     30 F          61.3398   80.8498   13.4447 F       1  UNL1       -0.2028
     31 C          62.3959   82.0666   12.2472 C.3     1  UNL1        0.0897
     32 C          63.1481   83.3105   11.8774 C.3     1  UNL1        0.1003
     33 C          63.7930   83.5898   10.5522 C.2     1  UNL1        0.0650
     34 O          63.2476   84.6696    9.6655 O.co2   1  UNL1       -0.5478
     35 O          64.9833   82.7891   10.1138 O.co2   1  UNL1       -0.5478
@<TRIPOS>UNITY_ATOM_ATTR
34 1
charge -1
@<TRIPOS>BOND
     1    23    24    1
     2    24    21    1
     3    21    22    2
     4    21     1    1
     5     1     2    2
     6     2    25    1
     7    25    26    1
     8    26    27    1
     9    27    28    1
    10    28    29    1
    11    28    30    1
    12    28    31    1
    13    31    32    1
    14    32    33    1
    15    33    34   ar
    16    33    35   ar
    17     2     3    1
    18     3     4    1
    19     4    16    1
    20    16    17   ar
    21    17    18   ar
    22    18    19   ar
    23    19    20   ar
    24     4     5    2
    25     5     6    1
    26     6     7    1
    27     6     9    1
    28     9    10   ar
    29    10    11   ar
    30    11    12   ar
    31    12    13    1
    32    12    14   ar
    33    14    15   ar
    34     6     1    1
    35    15     9   ar
    36    32    26    1
    37    20    16   ar
    38     3     8    1
@<TRIPOS>MOLECULE
*****
 35 38 0 0 0
SMALL
GASTEIGER

@<TRIPOS>ATOM
      1 C          63.2956   88.1851   12.9671 C.2     1  UNL1        0.1349
      2 C          62.9543   86.8077   12.4811 C.2     1  UNL1        0.1353
      3 N          62.0665   86.6331   11.2847 N.pl3   1  UNL1       -0.1998
      4 C          61.5200   87.8359   10.5744 C.2     1  UNL1        0.3440
      5 N          61.8612   89.2132   11.0604 N.2     1  UNL1       -0.0630
      6 C          62.7491   89.3878   12.2568 C.3     1  UNL1        0.2210
      7 C          62.4782   90.8246   11.9215 C.3     1  UNL1        0.0631
      8 H          61.8425   85.7290   10.9657 H       1  UNL1        0.2983
      9 C          63.5428   90.0615   13.3367 C.ar    1  UNL1        0.0261
     10 C          64.9287   90.5584   13.0500 C.ar    1  UNL1        0.0024
     11 C          65.7224   91.2320   14.1300 C.ar    1  UNL1        0.0295
     12 C          65.1300   91.4088   15.4967 C.ar    1  UNL1        0.1401
     13 F          65.9238   92.0825   16.5766 F       1  UNL1       -0.2042
     14 C          63.7441   90.9119   15.7834 C.ar    1  UNL1        0.0295
     15 C          62.9505   90.2383   14.7035 C.ar    1  UNL1        0.0024
     16 C          60.6322   87.6612    9.3780 C.ar    1  UNL1        0.1931
     17 N          60.2000   86.3534    8.7842 N.ar    1  UNL1       -0.2297
     18 C          59.3213   86.6476    7.6046 C.ar    1  UNL1        0.1067
     19 C          59.2105   88.1374    7.4694 C.ar    1  UNL1        0.0577
     20 S          60.0206   88.7638    8.5654 S.2     1  UNL1       -0.0586
     21 C          64.1834   88.3597   14.1635 C.2     1  UNL1        0.3446
     22 O          64.9541   88.5393   14.2597 O.2     1  UNL1       -0.2450
     23 C          63.7085   86.8526   16.2258 C.3     1  UNL1        0.2559
     24 O          63.6239   88.1862   15.5443 O.3     1  UNL1       -0.4414
     25 C          63.5009   85.6048   13.1914 C.3     1  UNL1        0.1407
     26 N          63.5035   84.2685   12.5102 N.3     1  UNL1       -0.2578
     27 C          64.0323   83.9801   11.1364 C.3     1  UNL1        0.1401
     28 C          63.8334   82.5192   10.8603 C.3     1  UNL1        0.2801
     29 F          64.4714   82.8424    9.5419 F       1  UNL1       -0.2028
     30 F          63.7678   81.1259   10.3086 F       1  UNL1       -0.2028
     31 C          63.1816   81.9047   12.0635 C.3     1  UNL1        0.0897
     32 C          62.9777   82.9858   13.0832 C.3     1  UNL1        0.1003
     33 C          62.3570   82.8143   14.4379 C.2     1  UNL1        0.0650
     34 O          62.8141   83.6653   15.5854 O.co2   1  UNL1       -0.5478
     35 O          61.2793   81.7918   14.6452 O.co2   1  UNL1       -0.5478
@<TRIPOS>UNITY_ATOM_ATTR
34 1
charge -1
@<TRIPOS>BOND
     1    23    24    1
     2    24    21    1
     3    21    22    2
     4    21     1    1
     5     1     2    2
     6     2    25    1
     7    25    26    1
     8    26    27    1
     9    27    28    1
    10    28    29    1
    11    28    30    1
    12    28    31    1
    13    31    32    1
    14    32    33    1
    15    33    34   ar
    16    33    35   ar
    17     2     3    1
    18     3     4    1
    19     4    16    1
    20    16    17   ar
    21    17    18   ar
    22    18    19   ar
    23    19    20   ar
    24     4     5    2
    25     5     6    1
    26     6     7    1
    27     6     9    1
    28     9    10   ar
    29    10    11   ar
    30    11    12   ar
    31    12    13    1
    32    12    14   ar
    33    14    15   ar
    34     6     1    1
    35    15     9   ar
    36    32    26    1
    37    20    16   ar
    38     3     8    1
@<TRIPOS>MOLECULE
*****
 35 38 0 0 0
SMALL
GASTEIGER

@<TRIPOS>ATOM
      1 C          63.4584   88.3458   13.1696 C.2     1  UNL1        0.1349
      2 C          62.9265   87.6883   11.9308 C.2     1  UNL1        0.1353
      3 N          62.8798   86.1920   11.8369 N.pl3   1  UNL1       -0.1998
      4 C          63.3650   85.3531   12.9818 C.2     1  UNL1        0.3440
      5 N          63.8968   86.0106   14.2207 N.2     1  UNL1       -0.0630
      6 C          63.9435   87.5070   14.3146 C.3     1  UNL1        0.2210
      7 C          64.5137   87.1440   15.6537 C.3     1  UNL1        0.0631
      8 H          62.5308   85.7604   11.0238 H       1  UNL1        0.2983
      9 C          64.1882   88.8772   14.8736 C.ar    1  UNL1        0.0261
     10 C          63.1984   89.4889   15.8202 C.ar    1  UNL1        0.0024
     11 C          63.4432   90.8592   16.3792 C.ar    1  UNL1        0.0295
     12 C          64.6779   91.6177   15.9916 C.ar    1  UNL1        0.1401
     13 F          64.9227   92.9880   16.5506 F       1  UNL1       -0.2042
     14 C          65.6677   91.0060   15.0450 C.ar    1  UNL1        0.0295
     15 C          65.4229   89.6358   14.4860 C.ar    1  UNL1        0.0024
     16 C          63.3183   83.8568   12.8879 C.ar    1  UNL1        0.1931
     17 N          62.7576   83.0621   11.7459 N.ar    1  UNL1       -0.2297
     18 C          62.9169   81.6066   12.0717 C.ar    1  UNL1        0.1067
     19 C          63.5760   81.5017   13.4151 C.ar    1  UNL1        0.0577
     20 S          63.8241   82.8924   13.9195 S.2     1  UNL1       -0.0586
     21 C          63.5051   89.8421   13.2635 C.2     1  UNL1        0.3446
     22 O          63.0643   90.3872   13.6431 O.2     1  UNL1       -0.2450
     23 C          64.1782   91.6416   11.5147 C.3     1  UNL1        0.2559
     24 O          64.5660   90.6070   12.5291 O.3     1  UNL1       -0.4414
     25 C          62.4413   88.5271   10.7858 C.3     1  UNL1        0.1407
     26 N          61.2565   88.0833    9.9801 N.3     1  UNL1       -0.2578
     27 C          61.2878   87.1486    8.8074 C.3     1  UNL1        0.1401
     28 C          59.8829   86.9838    8.3082 C.3     1  UNL1        0.2801
     29 F          60.5165   86.0769    7.2954 F       1  UNL1       -0.2028
     30 F          58.6105   86.6295    7.5974 F       1  UNL1       -0.2028
     31 C          58.9833   87.8167    9.1726 C.3     1  UNL1        0.0897
     32 C          59.8322   88.4962   10.2058 C.3     1  UNL1        0.1003
     33 C          59.3427   89.4255   11.2767 C.2     1  UNL1        0.0650
     34 O          59.2498   90.8981   11.0069 O.co2   1  UNL1       -0.5478
     35 O          58.9462   88.8823   12.6175 O.co2   1  UNL1       -0.5478
@<TRIPOS>UNITY_ATOM_ATTR
34 1
charge -1
@<TRIPOS>BOND
     1    23    24    1
     2    24    21    1
     3    21    22    2
     4    21     1    1
     5     1     2    2
     6     2    25    1
     7    25    26    1
     8    26    27    1
     9    27    28    1
    10    28    29    1
    11    28    30    1
    12    28    31    1
    13    31    32    1
    14    32    33    1
    15    33    34   ar
    16    33    35   ar
    17     2     3    1
    18     3     4    1
    19     4    16    1
    20    16    17   ar
    21    17    18   ar
    22    18    19   ar
    23    19    20   ar
    24     4     5    2
    25     5     6    1
    26     6     7    1
    27     6     9    1
    28     9    10   ar
    29    10    11   ar
    30    11    12   ar
    31    12    13    1
    32    12    14   ar
    33    14    15   ar
    34     6     1    1
    35    15     9   ar
    36    32    26    1
    37    20    16   ar
    38     3     8    1
@<TRIPOS>MOLECULE
*****
 35 38 0 0 0
SMALL
GASTEIGER

@<TRIPOS>ATOM
      1 C          63.6704   90.7235   12.8289 C.2     1  UNL1        0.1349
      2 C          63.2761   91.2508   11.4812 C.2     1  UNL1        0.1353
      3 N          64.2525   92.0558   10.6757 N.pl3   1  UNL1       -0.1998
      4 C          65.6232   92.3333   11.2179 C.2     1  UNL1        0.3440
      5 N          66.0175   91.8060   12.5656 N.2     1  UNL1       -0.0630
      6 C          65.0411   91.0011   13.3711 C.3     1  UNL1        0.2210
      7 C          66.2143   90.9988   14.3058 C.3     1  UNL1        0.0631
      8 H          63.9936   92.4019    9.7911 H       1  UNL1        0.2983
      9 C          64.4723   90.1954   14.5012 C.ar    1  UNL1        0.0261
     10 C          64.6493   88.7060   14.5241 C.ar    1  UNL1        0.0024
     11 C          64.0803   87.9004   15.6544 C.ar    1  UNL1        0.0295
     12 C          63.3344   88.5842   16.7616 C.ar    1  UNL1        0.1401
     13 F          62.7655   87.7785   17.8919 F       1  UNL1       -0.2042
     14 C          63.1574   90.0735   16.7387 C.ar    1  UNL1        0.0295
     15 C          63.7263   90.8791   15.6086 C.ar    1  UNL1        0.0024
     16 C          66.5996   93.1383   10.4124 C.ar    1  UNL1        0.1931
     17 N          67.7884   92.5995    9.6733 N.ar    1  UNL1       -0.2297
     18 C          68.4821   93.7516    9.0087 C.ar    1  UNL1        0.1067
     19 C          67.7220   95.0023    9.3371 C.ar    1  UNL1        0.0577
     20 S          66.5585   94.6232   10.2047 S.2     1  UNL1       -0.0586
     21 C          62.6940   89.9186   13.6344 C.2     1  UNL1        0.3446
     22 O          62.2234   90.0805   14.2571 O.2     1  UNL1       -0.2450
     23 C          63.4425   87.7291   12.4529 C.3     1  UNL1        0.2559
     24 O          62.4553   88.4759   13.3001 O.3     1  UNL1       -0.4414
     25 C          61.9053   90.9733   10.9389 C.3     1  UNL1        0.1407
     26 N          61.5014   89.5679   10.6046 N.3     1  UNL1       -0.2578
     27 C          62.2579   88.6192    9.7228 C.3     1  UNL1        0.1401
     28 C          61.4941   87.3294    9.6667 C.3     1  UNL1        0.2801
     29 F          62.6118   86.8889    8.7686 F       1  UNL1       -0.2028
     30 F          60.9639   85.9476    9.4228 F       1  UNL1       -0.2028
     31 C          60.2655   87.4811   10.5138 C.3     1  UNL1        0.0897
     32 C          60.2700   88.8646   11.0935 C.3     1  UNL1        0.1003
     33 C          59.2264   89.4431   12.0024 C.2     1  UNL1        0.0650
     34 O          58.6809   90.8155   11.7402 O.co2   1  UNL1       -0.5478
     35 O          58.7282   88.6491   13.1736 O.co2   1  UNL1       -0.5478
@<TRIPOS>UNITY_ATOM_ATTR
34 1
charge -1
@<TRIPOS>BOND
     1    23    24    1
     2    24    21    1
     3    21    22    2
     4    21     1    1
     5     1     2    2
     6     2    25    1
     7    25    26    1
     8    26    27    1
     9    27    28    1
    10    28    29    1
    11    28    30    1
    12    28    31    1
    13    31    32    1
    14    32    33    1
    15    33    34   ar
    16    33    35   ar
    17     2     3    1
    18     3     4    1
    19     4    16    1
    20    16    17   ar
    21    17    18   ar
    22    18    19   ar
    23    19    20   ar
    24     4     5    2
    25     5     6    1
    26     6     7    1
    27     6     9    1
    28     9    10   ar
    29    10    11   ar
    30    11    12   ar
    31    12    13    1
    32    12    14   ar
    33    14    15   ar
    34     6     1    1
    35    15     9   ar
    36    32    26    1
    37    20    16   ar
    38     3     8    1
@<TRIPOS>MOLECULE
*****
 35 38 0 0 0
SMALL
GASTEIGER

@<TRIPOS>ATOM
      1 C          63.3595   89.8784   13.0747 C.2     1  UNL1        0.1349
      2 C          63.9102   89.6160   14.4450 C.2     1  UNL1        0.1353
      3 N          65.1198   90.3632   14.9230 N.pl3   1  UNL1       -0.1998
      4 C          65.7787   91.3730   14.0307 C.2     1  UNL1        0.3440
      5 N          65.2279   91.6355   12.6604 N.2     1  UNL1       -0.0630
      6 C          64.0184   90.8882   12.1824 C.3     1  UNL1        0.2210
      7 C          64.2899   91.7413   10.9789 C.3     1  UNL1        0.0631
      8 H          65.4812   90.1910   15.8224 H       1  UNL1        0.2983
      9 C          62.9031   90.4372   11.2864 C.ar    1  UNL1        0.0261
     10 C          61.5323   91.0264   11.4404 C.ar    1  UNL1        0.0024
     11 C          60.4171   90.5753   10.5443 C.ar    1  UNL1        0.0295
     12 C          60.6727   89.5352    9.4942 C.ar    1  UNL1        0.1401
     13 F          59.5574   89.0842    8.5981 F       1  UNL1       -0.2042
     14 C          62.0436   88.9461    9.3401 C.ar    1  UNL1        0.0295
     15 C          63.1587   89.3971   10.2362 C.ar    1  UNL1        0.0024
     16 C          66.9882   92.1203   14.5087 C.ar    1  UNL1        0.1931
     17 N          68.3527   92.0793   13.8869 N.ar    1  UNL1       -0.2297
     18 C          69.2535   92.9734   14.6863 C.ar    1  UNL1        0.1067
     19 C          68.4458   93.5670   15.8022 C.ar    1  UNL1        0.0577
     20 S          67.0458   93.0398   15.6924 S.2     1  UNL1       -0.0586
     21 C          62.1499   89.1311   12.5967 C.2     1  UNL1        0.3446
     22 O          61.3735   89.3059   12.5503 O.2     1  UNL1       -0.2450
     23 C          61.0712   86.9077   11.7950 C.3     1  UNL1        0.2559
     24 O          62.2923   87.7366   12.0630 O.3     1  UNL1       -0.4414
     25 C          63.2513   88.6062   15.3374 C.3     1  UNL1        0.1407
     26 N          63.7154   87.1798   15.3267 N.3     1  UNL1       -0.2578
     27 C          64.7805   86.6058   14.4400 C.3     1  UNL1        0.1401
     28 C          64.9192   85.1482   14.7661 C.3     1  UNL1        0.2801
     29 F          65.9736   85.1713   13.6996 F       1  UNL1       -0.2028
     30 F          65.2783   83.6955   14.8692 F       1  UNL1       -0.2028
     31 C          63.9398   84.8215   15.8543 C.3     1  UNL1        0.0897
     32 C          63.1959   86.0771   16.2007 C.3     1  UNL1        0.1003
     33 C          62.1211   86.2070   17.2389 C.2     1  UNL1        0.0650
     34 O          60.6777   86.1285   16.8381 O.co2   1  UNL1       -0.5478
     35 O          62.4895   86.4156   18.6780 O.co2   1  UNL1       -0.5478
@<TRIPOS>UNITY_ATOM_ATTR
34 1
charge -1
@<TRIPOS>BOND
     1    23    24    1
     2    24    21    1
     3    21    22    2
     4    21     1    1
     5     1     2    2
     6     2    25    1
     7    25    26    1
     8    26    27    1
     9    27    28    1
    10    28    29    1
    11    28    30    1
    12    28    31    1
    13    31    32    1
    14    32    33    1
    15    33    34   ar
    16    33    35   ar
    17     2     3    1
    18     3     4    1
    19     4    16    1
    20    16    17   ar
    21    17    18   ar
    22    18    19   ar
    23    19    20   ar
    24     4     5    2
    25     5     6    1
    26     6     7    1
    27     6     9    1
    28     9    10   ar
    29    10    11   ar
    30    11    12   ar
    31    12    13    1
    32    12    14   ar
    33    14    15   ar
    34     6     1    1
    35    15     9   ar
    36    32    26    1
    37    20    16   ar
    38     3     8    1
@<TRIPOS>MOLECULE
*****
 35 38 0 0 0
SMALL
GASTEIGER

@<TRIPOS>ATOM
      1 C          63.3244   87.5733   13.0255 C.2     1  UNL1        0.1349
      2 C          62.8216   86.7922   11.8477 C.2     1  UNL1        0.1353
      3 N          62.7659   85.2945   11.9095 N.pl3   1  UNL1       -0.1998
      4 C          63.2129   84.5779   13.1490 C.2     1  UNL1        0.3440
      5 N          63.7157   85.3589   14.3268 N.2     1  UNL1       -0.0630
      6 C          63.7714   86.8566   14.2650 C.3     1  UNL1        0.2210
      7 C          64.3018   86.6331   15.6502 C.3     1  UNL1        0.0631
      8 H          62.4359   84.7819   11.1365 H       1  UNL1        0.2983
      9 C          64.0113   88.2766   14.6844 C.ar    1  UNL1        0.0261
     10 C          65.2172   89.0137   14.1817 C.ar    1  UNL1        0.0024
     11 C          65.4570   90.4338   14.6012 C.ar    1  UNL1        0.0295
     12 C          64.4910   91.1167   15.5233 C.ar    1  UNL1        0.1401
     13 F          64.7310   92.5369   15.9427 F       1  UNL1       -0.2042
     14 C          63.2852   90.3797   16.0259 C.ar    1  UNL1        0.0295
     15 C          63.0453   88.9597   15.6065 C.ar    1  UNL1        0.0024
     16 C          63.1572   83.0802   13.2108 C.ar    1  UNL1        0.1931
     17 N          63.4995   82.2335   14.4007 N.ar    1  UNL1       -0.2297
     18 C          63.3033   80.7962   14.0189 C.ar    1  UNL1        0.1067
     19 C          62.8397   80.7546   12.5929 C.ar    1  UNL1        0.0577
     20 S          62.7494   82.1662   12.0935 S.2     1  UNL1       -0.0586
     21 C          63.3801   89.0709   12.9637 C.2     1  UNL1        0.3446
     22 O          63.9686   89.5997   12.8662 O.2     1  UNL1       -0.2450
     23 C          61.5310   90.5563   11.9033 C.3     1  UNL1        0.2559
     24 O          62.1212   89.8746   13.1021 O.3     1  UNL1       -0.4414
     25 C          62.3745   87.5089   10.6081 C.3     1  UNL1        0.1407
     26 N          61.9927   86.7271    9.3863 N.3     1  UNL1       -0.2578
     27 C          62.8521   85.7218    8.6785 C.3     1  UNL1        0.1401
     28 C          62.0749   85.1867    7.5125 C.3     1  UNL1        0.2801
     29 F          63.3059   84.3644    7.2711 F       1  UNL1       -0.2028
     30 F          61.5551   84.4797    6.2960 F       1  UNL1       -0.2028
     31 C          60.7352   85.8612    7.4996 C.3     1  UNL1        0.0897
     32 C          60.6843   86.8132    8.6577 C.3     1  UNL1        0.1003
     33 C          59.5282   87.6962    9.0230 C.2     1  UNL1        0.0650
     34 O          59.3790   88.1926   10.4306 O.co2   1  UNL1       -0.5478
     35 O          58.5211   88.0830    7.9807 O.co2   1  UNL1       -0.5478
@<TRIPOS>UNITY_ATOM_ATTR
34 1
charge -1
@<TRIPOS>BOND
     1    23    24    1
     2    24    21    1
     3    21    22    2
     4    21     1    1
     5     1     2    2
     6     2    25    1
     7    25    26    1
     8    26    27    1
     9    27    28    1
    10    28    29    1
    11    28    30    1
    12    28    31    1
    13    31    32    1
    14    32    33    1
    15    33    34   ar
    16    33    35   ar
    17     2     3    1
    18     3     4    1
    19     4    16    1
    20    16    17   ar
    21    17    18   ar
    22    18    19   ar
    23    19    20   ar
    24     4     5    2
    25     5     6    1
    26     6     7    1
    27     6     9    1
    28     9    10   ar
    29    10    11   ar
    30    11    12   ar
    31    12    13    1
    32    12    14   ar
    33    14    15   ar
    34     6     1    1
    35    15     9   ar
    36    32    26    1
    37    20    16   ar
    38     3     8    1
