@<TRIPOS>MOLECULE
*****
 36 39 0 0 0
SMALL
GASTEIGER

@<TRIPOS>ATOM
      1 C          61.9527   89.0509   11.5523 C.3     1  UNL1        0.0837
      2 C          63.8059   89.8018   13.2112 C.ar    1  UNL1        0.2211
      3 N          64.9452   90.7127   13.5606 N.ar    1  UNL1       -0.2119
      4 C          65.3706   91.7839   12.6006 C.ar    1  UNL1        0.0844
      5 C          66.5098   92.6949   12.9500 C.ar    1  UNL1        0.0197
      6 C          66.9352   93.7660   11.9900 C.ar    1  UNL1        0.0082
      7 C          66.2213   93.9262   10.6805 C.ar    1  UNL1        0.0347
      8 BR         66.6467   94.9974    9.7205 Br      1  UNL1       -0.0490
      9 C          65.0820   93.0152   10.3311 C.ar    1  UNL1        0.0082
     10 C          64.6567   91.9441   11.2911 C.ar    1  UNL1        0.0181
     11 C          63.5174   91.0330   10.9417 C.ar    1  UNL1        0.0023
     12 C          63.0920   89.9619   11.9017 C.ar    1  UNL1        0.0379
     13 C          64.3838   87.7389   14.6812 C.3     1  UNL1        0.2542
     14 O          63.3805   88.7305   14.1712 O.3     1  UNL1       -0.4563
     15 C          62.2275   87.6904   10.9836 C.ar    1  UNL1        0.0131
     16 C          62.5307   87.3797    9.5478 C.ar    1  UNL1       -0.0015
     17 C          62.7380   85.8990    9.4276 C.ar    1  UNL1       -0.0197
     18 C          63.0632   85.1536    8.1672 C.3     1  UNL1        0.0312
     19 C          62.5630   85.2945   10.7893 C.ar    1  UNL1        0.0034
     20 C          62.6826   83.8385   11.1296 C.3     1  UNL1        0.0378
     21 S          62.2475   86.4016   11.7509 S.2     1  UNL1       -0.0955
     22 C          60.5385   89.5004   11.7716 C.3     1  UNL1        0.1164
     23 O          60.8593   89.8110   13.2036 O.3     1  UNL1       -0.3820
     24 H          60.3796   90.6086   13.4767 H       1  UNL1        0.2107
     25 C          60.2177   89.1898   10.3396 C.ar    1  UNL1        0.0046
     26 C          60.4585   90.2202    9.2765 C.ar    1  UNL1       -0.0019
     27 C          60.1376   89.9096    7.8446 C.ar    1  UNL1        0.0021
     28 C          59.5761   88.5685    7.4756 C.ar    1  UNL1        0.0296
     29 C          59.3354   87.5381    8.5387 C.ar    1  UNL1        0.1399
     30 F          58.7738   86.1969    8.1698 F       1  UNL1       -0.2042
     31 C          59.6562   87.8487    9.9707 C.ar    1  UNL1        0.0276
     32 C          59.1244   89.9499   11.9909 C.3     1  UNL1        0.0491
     33 C          58.0162   88.9404   12.0440 C.3     1  UNL1        0.0750
     34 N          57.5206   88.4397   13.3683 N.3     1  UNL1       -0.2702
     35 C          56.1189   87.9217   13.4974 C.3     1  UNL1        0.0897
     36 C          58.4268   88.4569   14.5634 C.3     1  UNL1        0.0897
@<TRIPOS>BOND
     1    13    14    1
     2    14     2    1
     3     2     3   ar
     4     3     4   ar
     5     4     5   ar
     6     5     6   ar
     7     6     7   ar
     8     7     8    1
     9     7     9   ar
    10     9    10   ar
    11    10    11   ar
    12    11    12   ar
    13     1    12    1
    14     1    15    1
    15    15    16   ar
    16    16    17   ar
    17    17    18    1
    18    17    19   ar
    19    19    20    1
    20    19    21   ar
    21     1    22    1
    22    22    23    1
    23    22    32    1
    24    32    33    1
    25    33    34    1
    26    34    35    1
    27    34    36    1
    28    22    25    1
    29    25    26   ar
    30    26    27   ar
    31    27    28   ar
    32    28    29   ar
    33    29    30    1
    34    29    31   ar
    35    12     2   ar
    36    21    15   ar
    37    31    25   ar
    38    10     4   ar
    39    23    24    1
@<TRIPOS>MOLECULE
*****
 36 39 0 0 0
SMALL
GASTEIGER

@<TRIPOS>ATOM
      1 C          62.3063   88.1474   10.9519 C.3     1  UNL1        0.0837
      2 C          63.5312   87.7572   13.2097 C.ar    1  UNL1        0.2211
      3 N          64.0235   86.8245   14.2763 N.ar    1  UNL1       -0.2119
      4 C          63.7831   85.3490   14.1518 C.ar    1  UNL1        0.0844
      5 C          64.2754   84.4163   15.2184 C.ar    1  UNL1        0.0197
      6 C          64.0350   82.9410   15.0938 C.ar    1  UNL1        0.0082
      7 C          63.3023   82.3984   13.9027 C.ar    1  UNL1        0.0347
      8 BR         63.0620   80.9229   13.7782 Br      1  UNL1       -0.0490
      9 C          62.8101   83.3311   12.8361 C.ar    1  UNL1        0.0082
     10 C          63.0505   84.8064   12.9606 C.ar    1  UNL1        0.0181
     11 C          62.5582   85.7392   11.8940 C.ar    1  UNL1        0.0023
     12 C          62.7986   87.2146   12.0185 C.ar    1  UNL1        0.0379
     13 C          63.5286   89.9242   14.6429 C.3     1  UNL1        0.2542
     14 O          63.7716   89.2326   13.3342 O.3     1  UNL1       -0.4563
     15 C          61.5825   87.6038    9.7558 C.ar    1  UNL1        0.0131
     16 C          60.3286   88.1653    9.1537 C.ar    1  UNL1       -0.0015
     17 C          59.9567   87.3118    7.9776 C.ar    1  UNL1       -0.0197
     18 C          58.7692   87.5121    7.0833 C.3     1  UNL1        0.0312
     19 C          60.9808   86.2229    7.8528 C.ar    1  UNL1        0.0034
     20 C          60.9971   85.1430    6.8118 C.3     1  UNL1        0.0378
     21 S          61.9855   86.4034    8.9518 S.2     1  UNL1       -0.0955
     22 C          62.5378   89.6237   11.0815 C.3     1  UNL1        0.1164
     23 O          63.9671   89.4359   10.6669 O.3     1  UNL1       -0.3820
     24 H          64.2446   90.1838   10.1149 H       1  UNL1        0.2107
     25 C          61.1086   89.8115   11.4961 C.ar    1  UNL1        0.0046
     26 C          60.2844   90.9001   10.8751 C.ar    1  UNL1       -0.0019
     27 C          58.8551   91.0879   11.2897 C.ar    1  UNL1        0.0021
     28 C          58.2500   90.1871   12.3253 C.ar    1  UNL1        0.0296
     29 C          59.0742   89.0985   12.9462 C.ar    1  UNL1        0.1399
     30 F          58.4691   88.1976   13.9818 F       1  UNL1       -0.2042
     31 C          60.5035   88.9107   12.5316 C.ar    1  UNL1        0.0276
     32 C          62.7694   91.1001   11.2110 C.3     1  UNL1        0.0491
     33 C          63.8415   91.7651   10.3997 C.3     1  UNL1        0.0750
     34 N          65.0143   92.4016   11.0846 N.3     1  UNL1       -0.2702
     35 C          66.0176   93.1799   10.2860 C.3     1  UNL1        0.0897
     36 C          65.1840   92.2599   12.5682 C.3     1  UNL1        0.0897
@<TRIPOS>BOND
     1    13    14    1
     2    14     2    1
     3     2     3   ar
     4     3     4   ar
     5     4     5   ar
     6     5     6   ar
     7     6     7   ar
     8     7     8    1
     9     7     9   ar
    10     9    10   ar
    11    10    11   ar
    12    11    12   ar
    13     1    12    1
    14     1    15    1
    15    15    16   ar
    16    16    17   ar
    17    17    18    1
    18    17    19   ar
    19    19    20    1
    20    19    21   ar
    21     1    22    1
    22    22    23    1
    23    22    32    1
    24    32    33    1
    25    33    34    1
    26    34    35    1
    27    34    36    1
    28    22    25    1
    29    25    26   ar
    30    26    27   ar
    31    27    28   ar
    32    28    29   ar
    33    29    30    1
    34    29    31   ar
    35    12     2   ar
    36    21    15   ar
    37    31    25   ar
    38    10     4   ar
    39    23    24    1
@<TRIPOS>MOLECULE
*****
 36 39 0 0 0
SMALL
GASTEIGER

@<TRIPOS>ATOM
      1 C          62.1144   86.5275   11.5685 C.3     1  UNL1        0.0837
      2 C          63.4724   87.1474   13.6949 C.ar    1  UNL1        0.2211
      3 N          64.3030   88.1307   14.4650 N.ar    1  UNL1       -0.2119
      4 C          64.6062   89.4778   13.8788 C.ar    1  UNL1        0.0844
      5 C          65.4367   90.4612   14.6489 C.ar    1  UNL1        0.0197
      6 C          65.7399   91.8081   14.0627 C.ar    1  UNL1        0.0082
      7 C          65.2125   92.1717   12.7063 C.ar    1  UNL1        0.0347
      8 BR         65.5158   93.5188   12.1201 Br      1  UNL1       -0.0490
      9 C          64.3820   91.1884   11.9362 C.ar    1  UNL1        0.0082
     10 C          64.0788   89.8414   12.5225 C.ar    1  UNL1        0.0181
     11 C          63.2482   88.8579   11.7524 C.ar    1  UNL1        0.0023
     12 C          62.9450   87.5110   12.3386 C.ar    1  UNL1        0.0379
     13 C          63.8773   85.3463   15.5231 C.3     1  UNL1        0.2542
     14 O          63.1692   85.8003   14.2812 O.3     1  UNL1       -0.4563
     15 C          62.4539   85.0670   11.6066 C.ar    1  UNL1        0.0131
     16 C          63.3951   84.3560   10.6799 C.ar    1  UNL1       -0.0015
     17 C          63.4347   82.9106   11.0787 C.ar    1  UNL1       -0.0197
     18 C          64.2482   81.8362   10.4200 C.3     1  UNL1        0.0312
     19 C          62.5179   82.7282   12.2519 C.ar    1  UNL1        0.0034
     20 C          62.2537   81.4393   12.9724 C.3     1  UNL1        0.0378
     21 S          61.9118   84.0609   12.5781 S.2     1  UNL1       -0.0955
     22 C          60.9443   87.0047   10.7603 C.3     1  UNL1        0.1164
     23 O          60.3464   87.6214   11.9900 O.3     1  UNL1       -0.3820
     24 H          59.9120   88.4561   11.7546 H       1  UNL1        0.2107
     25 C          61.5423   86.3881    9.5305 C.ar    1  UNL1        0.0046
     26 C          63.0147   86.5085    9.2713 C.ar    1  UNL1       -0.0019
     27 C          63.6127   85.8918    8.0416 C.ar    1  UNL1        0.0021
     28 C          62.7381   85.1548    7.0711 C.ar    1  UNL1        0.0296
     29 C          61.2657   85.0343    7.3304 C.ar    1  UNL1        0.1399
     30 F          60.3910   84.2972    6.3599 F       1  UNL1       -0.2042
     31 C          60.6677   85.6510    8.5601 C.ar    1  UNL1        0.0276
     32 C          59.7743   87.4819    9.9520 C.3     1  UNL1        0.0491
     33 C          59.7886   88.8559    9.3506 C.3     1  UNL1        0.0750
     34 N          60.3298   90.0131   10.1367 N.3     1  UNL1       -0.2702
     35 C          59.5231   90.6024   11.2556 C.3     1  UNL1        0.0897
     36 C          61.6776   90.5811    9.8039 C.3     1  UNL1        0.0897
@<TRIPOS>BOND
     1    13    14    1
     2    14     2    1
     3     2     3   ar
     4     3     4   ar
     5     4     5   ar
     6     5     6   ar
     7     6     7   ar
     8     7     8    1
     9     7     9   ar
    10     9    10   ar
    11    10    11   ar
    12    11    12   ar
    13     1    12    1
    14     1    15    1
    15    15    16   ar
    16    16    17   ar
    17    17    18    1
    18    17    19   ar
    19    19    20    1
    20    19    21   ar
    21     1    22    1
    22    22    23    1
    23    22    32    1
    24    32    33    1
    25    33    34    1
    26    34    35    1
    27    34    36    1
    28    22    25    1
    29    25    26   ar
    30    26    27   ar
    31    27    28   ar
    32    28    29   ar
    33    29    30    1
    34    29    31   ar
    35    12     2   ar
    36    21    15   ar
    37    31    25   ar
    38    10     4   ar
    39    23    24    1
@<TRIPOS>MOLECULE
*****
 36 39 0 0 0
SMALL
GASTEIGER

@<TRIPOS>ATOM
      1 C          62.7490   89.4535   12.1406 C.3     1  UNL1        0.0837
      2 C          63.1339   88.5256   14.5367 C.ar    1  UNL1        0.2211
      3 N          63.4533   87.3795   15.4501 N.ar    1  UNL1       -0.2119
      4 C          63.7073   86.0150   14.8809 C.ar    1  UNL1        0.0844
      5 C          64.0268   84.8689   15.7944 C.ar    1  UNL1        0.0197
      6 C          64.2808   83.5046   15.2252 C.ar    1  UNL1        0.0082
      7 C          64.2154   83.2864   13.7426 C.ar    1  UNL1        0.0347
      8 BR         64.4694   81.9219   13.1734 Br      1  UNL1       -0.0490
      9 C          63.8959   84.4324   12.8292 C.ar    1  UNL1        0.0082
     10 C          63.6419   85.7968   13.3983 C.ar    1  UNL1        0.0181
     11 C          63.3225   86.9430   12.4849 C.ar    1  UNL1        0.0023
     12 C          63.0684   88.3073   13.0541 C.ar    1  UNL1        0.0379
     13 C          63.3737   90.2333   16.4800 C.3     1  UNL1        0.2542
     14 O          62.8798   89.8900   15.1058 O.3     1  UNL1       -0.4563
     15 C          63.7417   90.5621   11.9529 C.ar    1  UNL1        0.0131
     16 C          63.9537   91.3523   10.6957 C.ar    1  UNL1       -0.0015
     17 C          65.0398   92.3538   10.9552 C.ar    1  UNL1       -0.0197
     18 C          65.5731   93.3514    9.9700 C.3     1  UNL1        0.0312
     19 C          65.4990   92.1826   12.3729 C.ar    1  UNL1        0.0034
     20 C          66.5721   92.9789   13.0544 C.3     1  UNL1        0.0378
     21 S          64.6968   91.0753   12.9895 S.2     1  UNL1       -0.0955
     22 C          61.4367   89.4909   11.4150 C.3     1  UNL1        0.1164
     23 O          61.1504   90.8411   12.0024 O.3     1  UNL1       -0.3820
     24 H          60.6935   91.3893   11.3454 H       1  UNL1        0.2107
     25 C          61.7231   88.1408   10.8275 C.ar    1  UNL1        0.0046
     26 C          60.9846   86.9341   11.3259 C.ar    1  UNL1       -0.0019
     27 C          61.2710   85.5839   10.7384 C.ar    1  UNL1        0.0021
     28 C          62.2958   85.4405    9.6525 C.ar    1  UNL1        0.0296
     29 C          63.0342   86.6472    9.1542 C.ar    1  UNL1        0.1399
     30 F          64.0591   86.5039    8.0682 F       1  UNL1       -0.2042
     31 C          62.7479   87.9974    9.7416 C.ar    1  UNL1        0.0276
     32 C          60.1245   89.5284   10.6893 C.3     1  UNL1        0.0491
     33 C          60.0695   89.9861    9.2619 C.3     1  UNL1        0.0750
     34 N          59.5888   89.0509    8.1923 N.3     1  UNL1       -0.2702
     35 C          59.2150   87.6408    8.5415 C.3     1  UNL1        0.0897
     36 C          59.4820   89.5256    6.7735 C.3     1  UNL1        0.0897
@<TRIPOS>BOND
     1    13    14    1
     2    14     2    1
     3     2     3   ar
     4     3     4   ar
     5     4     5   ar
     6     5     6   ar
     7     6     7   ar
     8     7     8    1
     9     7     9   ar
    10     9    10   ar
    11    10    11   ar
    12    11    12   ar
    13     1    12    1
    14     1    15    1
    15    15    16   ar
    16    16    17   ar
    17    17    18    1
    18    17    19   ar
    19    19    20    1
    20    19    21   ar
    21     1    22    1
    22    22    23    1
    23    22    32    1
    24    32    33    1
    25    33    34    1
    26    34    35    1
    27    34    36    1
    28    22    25    1
    29    25    26   ar
    30    26    27   ar
    31    27    28   ar
    32    28    29   ar
    33    29    30    1
    34    29    31   ar
    35    12     2   ar
    36    21    15   ar
    37    31    25   ar
    38    10     4   ar
    39    23    24    1
@<TRIPOS>MOLECULE
*****
 36 39 0 0 0
SMALL
GASTEIGER

@<TRIPOS>ATOM
      1 C          61.7492   87.4995   10.0224 C.3     1  UNL1        0.0837
      2 C          62.8708   85.3063    9.1963 C.ar    1  UNL1        0.2211
      3 N          63.3558   83.9132    9.4679 N.ar    1  UNL1       -0.2119
      4 C          63.2044   83.3199   10.8373 C.ar    1  UNL1        0.0844
      5 C          63.6894   81.9267   11.1089 C.ar    1  UNL1        0.0197
      6 C          63.5379   81.3335   12.4783 C.ar    1  UNL1        0.0082
      7 C          62.9014   82.1334   13.5760 C.ar    1  UNL1        0.0347
      8 BR         62.7500   81.5401   14.9454 Br      1  UNL1       -0.0490
      9 C          62.4164   83.5266   13.3044 C.ar    1  UNL1        0.0082
     10 C          62.5678   84.1198   11.9350 C.ar    1  UNL1        0.0181
     11 C          62.0828   85.5130   11.6634 C.ar    1  UNL1        0.0023
     12 C          62.2343   86.1062   10.2940 C.ar    1  UNL1        0.0379
     13 C          62.8421   85.0382    6.6122 C.3     1  UNL1        0.2542
     14 O          63.0222   85.8996    7.8269 O.3     1  UNL1       -0.4563
     15 C          62.4805   88.6744   10.6009 C.ar    1  UNL1        0.0131
     16 C          62.9279   89.8923    9.8482 C.ar    1  UNL1       -0.0015
     17 C          63.6167   90.8083   10.8158 C.ar    1  UNL1       -0.0197
     18 C          64.2210   92.1419   10.4899 C.3     1  UNL1        0.0312
     19 C          63.5950   90.1565   12.1667 C.ar    1  UNL1        0.0034
     20 C          64.1739   90.7240   13.4288 C.3     1  UNL1        0.0378
     21 S          62.8928   88.8377   12.0338 S.2     1  UNL1       -0.0955
     22 C          60.5329   87.7177    9.1721 C.3     1  UNL1        0.1164
     23 O          61.0997   86.8035    8.1266 O.3     1  UNL1       -0.3820
     24 H          60.3835   86.2848    7.7280 H       1  UNL1        0.2107
     25 C          59.9661   88.6319   10.2176 C.ar    1  UNL1        0.0046
     26 C          59.9635   90.1152    9.9952 C.ar    1  UNL1       -0.0019
     27 C          59.3967   91.0294   11.0407 C.ar    1  UNL1        0.0021
     28 C          58.8324   90.4602   12.3086 C.ar    1  UNL1        0.0296
     29 C          58.8350   88.9768   12.5309 C.ar    1  UNL1        0.1399
     30 F          58.2707   88.4075   13.7988 F       1  UNL1       -0.2042
     31 C          59.4018   88.0626   11.4854 C.ar    1  UNL1        0.0276
     32 C          59.3166   87.9359    8.3219 C.3     1  UNL1        0.0491
     33 C          59.4651   88.1846    6.8501 C.3     1  UNL1        0.0750
     34 N          59.1640   89.5409    6.2845 N.3     1  UNL1       -0.2702
     35 C          60.2779   90.4018    5.7668 C.3     1  UNL1        0.0897
     36 C          57.7490   90.0363    6.2366 C.3     1  UNL1        0.0897
@<TRIPOS>BOND
     1    13    14    1
     2    14     2    1
     3     2     3   ar
     4     3     4   ar
     5     4     5   ar
     6     5     6   ar
     7     6     7   ar
     8     7     8    1
     9     7     9   ar
    10     9    10   ar
    11    10    11   ar
    12    11    12   ar
    13     1    12    1
    14     1    15    1
    15    15    16   ar
    16    16    17   ar
    17    17    18    1
    18    17    19   ar
    19    19    20    1
    20    19    21   ar
    21     1    22    1
    22    22    23    1
    23    22    32    1
    24    32    33    1
    25    33    34    1
    26    34    35    1
    27    34    36    1
    28    22    25    1
    29    25    26   ar
    30    26    27   ar
    31    27    28   ar
    32    28    29   ar
    33    29    30    1
    34    29    31   ar
    35    12     2   ar
    36    21    15   ar
    37    31    25   ar
    38    10     4   ar
    39    23    24    1
@<TRIPOS>MOLECULE
*****
 36 39 0 0 0
SMALL
GASTEIGER

@<TRIPOS>ATOM
      1 C          62.8059   88.3965   11.4526 C.3     1  UNL1        0.0837
      2 C          63.4191   90.1864   13.2332 C.ar    1  UNL1        0.2211
      3 N          64.0869   91.4786   13.5998 N.ar    1  UNL1       -0.2119
      4 C          64.8093   92.2731   12.5524 C.ar    1  UNL1        0.0844
      5 C          65.4771   93.5652   12.9190 C.ar    1  UNL1        0.0197
      6 C          66.1995   94.3596   11.8716 C.ar    1  UNL1        0.0082
      7 C          66.2541   93.8619   10.4576 C.ar    1  UNL1        0.0347
      8 BR         66.9765   94.6564    9.4102 Br      1  UNL1       -0.0490
      9 C          65.5863   92.5698   10.0910 C.ar    1  UNL1        0.0082
     10 C          64.8639   91.7754   11.1384 C.ar    1  UNL1        0.0181
     11 C          64.1961   90.4832   10.7718 C.ar    1  UNL1        0.0023
     12 C          63.4737   89.6887   11.8192 C.ar    1  UNL1        0.0379
     13 C          62.9887   89.6255   15.7332 C.3     1  UNL1        0.2542
     14 O          62.6967   89.3919   14.2805 O.3     1  UNL1       -0.4563
     15 C          63.0080   87.1794   12.3057 C.ar    1  UNL1        0.0131
     16 C          63.8637   87.0965   13.5349 C.ar    1  UNL1       -0.0015
     17 C          63.7745   85.6974   14.0683 C.ar    1  UNL1       -0.0197
     18 C          64.4734   85.1722   15.2872 C.3     1  UNL1        0.0312
     19 C          62.8636   84.9156   13.1687 C.ar    1  UNL1        0.0034
     20 C          62.4917   83.4714   13.3301 C.3     1  UNL1        0.0378
     21 S          62.3899   85.8316   12.0794 S.2     1  UNL1       -0.0955
     22 C          61.9360   88.3215   10.2329 C.3     1  UNL1        0.1164
     23 O          63.0344   87.6173    9.4929 O.3     1  UNL1       -0.3820
     24 H          62.6510   86.9448    8.9084 H       1  UNL1        0.2107
     25 C          60.8377   89.0257   10.9730 C.ar    1  UNL1        0.0046
     26 C          60.5117   90.4538   10.6505 C.ar    1  UNL1       -0.0019
     27 C          59.4134   91.1580   11.3905 C.ar    1  UNL1        0.0021
     28 C          58.6409   90.4341   12.4531 C.ar    1  UNL1        0.0296
     29 C          58.9668   89.0059   12.7756 C.ar    1  UNL1        0.1399
     30 F          58.1943   88.2818   13.8382 F       1  UNL1       -0.2042
     31 C          60.0652   88.3017   12.0356 C.ar    1  UNL1        0.0276
     32 C          61.0661   88.2465    9.0132 C.3     1  UNL1        0.0491
     33 C          60.3522   86.9705    8.6785 C.3     1  UNL1        0.0750
     34 N          61.0574   85.8977    7.9027 N.3     1  UNL1       -0.2702
     35 C          62.4333   85.4598    8.3089 C.3     1  UNL1        0.0897
     36 C          60.3867   85.2629    6.7208 C.3     1  UNL1        0.0897
@<TRIPOS>BOND
     1    13    14    1
     2    14     2    1
     3     2     3   ar
     4     3     4   ar
     5     4     5   ar
     6     5     6   ar
     7     6     7   ar
     8     7     8    1
     9     7     9   ar
    10     9    10   ar
    11    10    11   ar
    12    11    12   ar
    13     1    12    1
    14     1    15    1
    15    15    16   ar
    16    16    17   ar
    17    17    18    1
    18    17    19   ar
    19    19    20    1
    20    19    21   ar
    21     1    22    1
    22    22    23    1
    23    22    32    1
    24    32    33    1
    25    33    34    1
    26    34    35    1
    27    34    36    1
    28    22    25    1
    29    25    26   ar
    30    26    27   ar
    31    27    28   ar
    32    28    29   ar
    33    29    30    1
    34    29    31   ar
    35    12     2   ar
    36    21    15   ar
    37    31    25   ar
    38    10     4   ar
    39    23    24    1
@<TRIPOS>MOLECULE
*****
 36 39 0 0 0
SMALL
GASTEIGER

@<TRIPOS>ATOM
      1 C          62.5751   87.8713   12.3742 C.3     1  UNL1        0.0837
      2 C          63.8353   89.4439   14.0140 C.ar    1  UNL1        0.2211
      3 N          64.6266   90.6930   14.2662 N.ar    1  UNL1       -0.2119
      4 C          64.9492   91.6186   13.1307 C.ar    1  UNL1        0.0844
      5 C          65.7405   92.8676   13.3829 C.ar    1  UNL1        0.0197
      6 C          66.0630   93.7932   12.2475 C.ar    1  UNL1        0.0082
      7 C          65.5942   93.4697   10.8599 C.ar    1  UNL1        0.0347
      8 BR         65.9167   94.3954    9.7244 Br      1  UNL1       -0.0490
      9 C          64.8029   92.2207   10.6076 C.ar    1  UNL1        0.0082
     10 C          64.4804   91.2951   11.7431 C.ar    1  UNL1        0.0181
     11 C          63.6890   90.0460   11.4909 C.ar    1  UNL1        0.0023
     12 C          63.3665   89.1205   12.6263 C.ar    1  UNL1        0.0379
     13 C          63.1499   89.0776   16.4931 C.3     1  UNL1        0.2542
     14 O          63.5128   88.5183   15.1494 O.3     1  UNL1       -0.4563
     15 C          62.9574   86.5909   13.0555 C.ar    1  UNL1        0.0131
     16 C          64.3530   86.0733   13.2408 C.ar    1  UNL1       -0.0015
     17 C          64.2694   84.7658   13.9711 C.ar    1  UNL1       -0.0197
     18 C          65.4294   83.9007   14.3660 C.3     1  UNL1        0.0312
     19 C          62.8220   84.4752   14.2371 C.ar    1  UNL1        0.0034
     20 C          62.2805   83.2685   14.9447 C.3     1  UNL1        0.0378
     21 S          62.0112   85.6032   13.6712 S.2     1  UNL1       -0.0955
     22 C          61.4014   87.9027   11.4406 C.3     1  UNL1        0.1164
     23 O          60.7766   88.9907   12.2627 O.3     1  UNL1       -0.3820
     24 H          60.3240   89.6185   11.6779 H       1  UNL1        0.2107
     25 C          62.0263   86.8148   10.6184 C.ar    1  UNL1        0.0046
     26 C          62.7072   87.1496    9.3246 C.ar    1  UNL1       -0.0019
     27 C          63.3321   86.0616    8.5024 C.ar    1  UNL1        0.0021
     28 C          63.2760   84.6389    8.9742 C.ar    1  UNL1        0.0296
     29 C          62.5950   84.3041   10.2680 C.ar    1  UNL1        0.1399
     30 F          62.5389   82.8813   10.7398 F       1  UNL1       -0.2042
     31 C          61.9702   85.3920   11.0902 C.ar    1  UNL1        0.0276
     32 C          60.2278   87.9342   10.5070 C.3     1  UNL1        0.0491
     33 C          60.2504   88.8293    9.3037 C.3     1  UNL1        0.0750
     34 N          59.6153   88.3787    8.0216 N.3     1  UNL1       -0.2702
     35 C          59.3970   89.3591    6.9076 C.3     1  UNL1        0.0897
     36 C          59.1984   86.9476    7.8537 C.3     1  UNL1        0.0897
@<TRIPOS>BOND
     1    13    14    1
     2    14     2    1
     3     2     3   ar
     4     3     4   ar
     5     4     5   ar
     6     5     6   ar
     7     6     7   ar
     8     7     8    1
     9     7     9   ar
    10     9    10   ar
    11    10    11   ar
    12    11    12   ar
    13     1    12    1
    14     1    15    1
    15    15    16   ar
    16    16    17   ar
    17    17    18    1
    18    17    19   ar
    19    19    20    1
    20    19    21   ar
    21     1    22    1
    22    22    23    1
    23    22    32    1
    24    32    33    1
    25    33    34    1
    26    34    35    1
    27    34    36    1
    28    22    25    1
    29    25    26   ar
    30    26    27   ar
    31    27    28   ar
    32    28    29   ar
    33    29    30    1
    34    29    31   ar
    35    12     2   ar
    36    21    15   ar
    37    31    25   ar
    38    10     4   ar
    39    23    24    1
@<TRIPOS>MOLECULE
*****
 36 39 0 0 0
SMALL
GASTEIGER

@<TRIPOS>ATOM
      1 C          62.1392   88.9549   11.8403 C.3     1  UNL1        0.0837
      2 C          63.7873   89.9840   13.5650 C.ar    1  UNL1        0.2211
      3 N          64.8772   90.9590   13.8986 N.ar    1  UNL1       -0.2119
      4 C          65.4090   91.8802   12.8408 C.ar    1  UNL1        0.0844
      5 C          66.4990   92.8552   13.1744 C.ar    1  UNL1        0.0197
      6 C          67.0307   93.7763   12.1167 C.ar    1  UNL1        0.0082
      7 C          66.4726   93.7223   10.7254 C.ar    1  UNL1        0.0347
      8 BR         67.0044   94.6435    9.6677 Br      1  UNL1       -0.0490
      9 C          65.3826   92.7473   10.3919 C.ar    1  UNL1        0.0082
     10 C          64.8509   91.8262   11.4496 C.ar    1  UNL1        0.0181
     11 C          63.7609   90.8511   11.1161 C.ar    1  UNL1        0.0023
     12 C          63.2291   89.9300   12.1738 C.ar    1  UNL1        0.0379
     13 C          63.2825   89.4800   16.0633 C.3     1  UNL1        0.2542
     14 O          63.2555   89.0628   14.6227 O.3     1  UNL1       -0.4563
     15 C          60.7017   89.3612   11.9765 C.ar    1  UNL1        0.0131
     16 C          60.1231   90.6939   11.6035 C.ar    1  UNL1       -0.0015
     17 C          58.6543   90.6627   11.9062 C.ar    1  UNL1       -0.0197
     18 C          57.6848   91.7861   11.6873 C.3     1  UNL1        0.0312
     19 C          58.3252   89.3106   12.4663 C.ar    1  UNL1        0.0034
     20 C          56.9688   88.8446   12.9057 C.3     1  UNL1        0.0378
     21 S          59.5906   88.5063   12.5097 S.2     1  UNL1       -0.0955
     22 C          62.4867   87.5734   11.3705 C.3     1  UNL1        0.1164
     23 O          63.3446   87.3762   12.5850 O.3     1  UNL1       -0.3820
     24 H          63.2667   86.4588   12.8904 H       1  UNL1        0.2107
     25 C          61.6288   87.7706   10.1559 C.ar    1  UNL1        0.0046
     26 C          61.4804   89.1375    9.5564 C.ar    1  UNL1       -0.0019
     27 C          60.6225   89.3347    8.3419 C.ar    1  UNL1        0.0021
     28 C          59.9130   88.1649    7.7268 C.ar    1  UNL1        0.0296
     29 C          60.0614   86.7980    8.3264 C.ar    1  UNL1        0.1399
     30 F          59.3519   85.6282    7.7113 F       1  UNL1       -0.2042
     31 C          60.9193   86.6008    9.5409 C.ar    1  UNL1        0.0276
     32 C          62.8342   86.1919   10.9007 C.3     1  UNL1        0.0491
     33 C          62.6383   85.0178   11.8135 C.3     1  UNL1        0.0750
     34 N          63.7888   84.1051   12.1190 N.3     1  UNL1       -0.2702
     35 C          64.4257   84.1300   13.4768 C.3     1  UNL1        0.0897
     36 C          64.3023   83.1676   11.0668 C.3     1  UNL1        0.0897
@<TRIPOS>BOND
     1    13    14    1
     2    14     2    1
     3     2     3   ar
     4     3     4   ar
     5     4     5   ar
     6     5     6   ar
     7     6     7   ar
     8     7     8    1
     9     7     9   ar
    10     9    10   ar
    11    10    11   ar
    12    11    12   ar
    13     1    12    1
    14     1    15    1
    15    15    16   ar
    16    16    17   ar
    17    17    18    1
    18    17    19   ar
    19    19    20    1
    20    19    21   ar
    21     1    22    1
    22    22    23    1
    23    22    32    1
    24    32    33    1
    25    33    34    1
    26    34    35    1
    27    34    36    1
    28    22    25    1
    29    25    26   ar
    30    26    27   ar
    31    27    28   ar
    32    28    29   ar
    33    29    30    1
    34    29    31   ar
    35    12     2   ar
    36    21    15   ar
    37    31    25   ar
    38    10     4   ar
    39    23    24    1
@<TRIPOS>MOLECULE
*****
 36 39 0 0 0
SMALL
GASTEIGER

@<TRIPOS>ATOM
      1 C          64.8799   91.1370   13.7196 C.3     1  UNL1        0.0837
      2 C          63.6642   90.3166   15.8642 C.ar    1  UNL1        0.2211
      3 N          63.1632   89.1950   16.7248 N.ar    1  UNL1       -0.2119
      4 C          63.3768   87.7718   16.3016 C.ar    1  UNL1        0.0844
      5 C          62.8758   86.6501   17.1623 C.ar    1  UNL1        0.0197
      6 C          63.0894   85.2271   16.7390 C.ar    1  UNL1        0.0082
      7 C          63.8040   84.9257   15.4551 C.ar    1  UNL1        0.0347
      8 BR         64.0176   83.5025   15.0318 Br      1  UNL1       -0.0490
      9 C          64.3050   86.0473   14.5944 C.ar    1  UNL1        0.0082
     10 C          64.0914   87.4704   15.0177 C.ar    1  UNL1        0.0181
     11 C          64.5925   88.5922   14.1570 C.ar    1  UNL1        0.0023
     12 C          64.3788   90.0152   14.5802 C.ar    1  UNL1        0.0379
     13 C          64.4137   92.3935   17.2336 C.3     1  UNL1        0.2542
     14 O          63.4506   91.7398   16.2874 O.3     1  UNL1       -0.4563
     15 C          66.1742   91.8177   14.0531 C.ar    1  UNL1        0.0131
     16 C          67.5462   91.3249   13.7000 C.ar    1  UNL1       -0.0015
     17 C          68.5437   92.3134   14.2270 C.ar    1  UNL1       -0.0197
     18 C          70.0349   92.2154   14.0979 C.3     1  UNL1        0.0312
     19 C          67.7882   93.4172   14.9059 C.ar    1  UNL1        0.0034
     20 C          68.3912   94.6168   15.5747 C.3     1  UNL1        0.0378
     21 S          66.3237   93.1109   14.7984 S.2     1  UNL1       -0.0955
     22 C          64.0865   91.5780   12.5253 C.3     1  UNL1        0.1164
     23 O          62.8536   90.9613   13.1167 O.3     1  UNL1       -0.3820
     24 H          62.0850   91.5173   12.9142 H       1  UNL1        0.2107
     25 C          65.3194   92.1946   11.9340 C.ar    1  UNL1        0.0046
     26 C          66.3762   91.3217   11.3246 C.ar    1  UNL1       -0.0019
     27 C          67.6091   91.9384   10.7333 C.ar    1  UNL1        0.0021
     28 C          67.7853   93.4278   10.7513 C.ar    1  UNL1        0.0296
     29 C          66.7285   94.3007   11.3606 C.ar    1  UNL1        0.1399
     30 F          66.9046   95.7903   11.3786 F       1  UNL1       -0.2042
     31 C          65.4956   93.6841   11.9520 C.ar    1  UNL1        0.0276
     32 C          63.2932   92.0189   11.3311 C.3     1  UNL1        0.0491
     33 C          62.9500   91.0338   10.2533 C.3     1  UNL1        0.0750
     34 N          61.9013   89.9896   10.4979 N.3     1  UNL1       -0.2702
     35 C          62.2908   88.5446   10.5989 C.3     1  UNL1        0.0897
     36 C          60.4630   90.3904   10.6414 C.3     1  UNL1        0.0897
@<TRIPOS>BOND
     1    13    14    1
     2    14     2    1
     3     2     3   ar
     4     3     4   ar
     5     4     5   ar
     6     5     6   ar
     7     6     7   ar
     8     7     8    1
     9     7     9   ar
    10     9    10   ar
    11    10    11   ar
    12    11    12   ar
    13     1    12    1
    14     1    15    1
    15    15    16   ar
    16    16    17   ar
    17    17    18    1
    18    17    19   ar
    19    19    20    1
    20    19    21   ar
    21     1    22    1
    22    22    23    1
    23    22    32    1
    24    32    33    1
    25    33    34    1
    26    34    35    1
    27    34    36    1
    28    22    25    1
    29    25    26   ar
    30    26    27   ar
    31    27    28   ar
    32    28    29   ar
    33    29    30    1
    34    29    31   ar
    35    12     2   ar
    36    21    15   ar
    37    31    25   ar
    38    10     4   ar
    39    23    24    1
