@<TRIPOS>MOLECULE
*****
 29 32 0 0 0
SMALL
GASTEIGER

@<TRIPOS>ATOM
      1 C          63.1284   90.5751   10.9357 C.3     1  UNL1        0.0983
      2 C          63.4453   91.6082    9.8954 C.3     1  UNL1        0.0280
      3 C          64.4088   92.7149   10.2066 C.3     1  UNL1        0.0452
      4 C          65.0554   92.7885   11.5581 C.ar    1  UNL1        0.0335
      5 C          66.0374   93.7559   12.1496 C.ar    1  UNL1       -0.0035
      6 C          66.3274   93.3207   13.5555 C.ar    1  UNL1        0.0133
      7 C          67.2188   93.8904   14.6188 C.ar    1  UNL1        0.0012
      8 C          67.3073   93.2238   15.9596 C.ar    1  UNL1        0.0001
      9 C          66.5046   91.9874   16.2370 C.ar    1  UNL1        0.0015
     10 C          65.6132   91.4177   15.1736 C.ar    1  UNL1        0.0172
     11 C          65.5247   92.0843   13.8328 C.ar    1  UNL1        0.0594
     12 N          64.7385   91.7554   12.5984 N.ar    1  UNL1       -0.3292
     13 C          63.7750   90.6487   12.2872 C.3     1  UNL1        0.1254
     14 C          61.0618   89.6909    9.6329 C.3     1  UNL1        0.1149
     15 N          62.1649   89.4683   10.6246 N.am    1  UNL1       -0.2772
     16 C          62.3047   88.1389   11.3053 C.2     1  UNL1        0.2301
     17 O          63.4078   87.9163   12.2970 O.2     1  UNL1       -0.2745
     18 C          61.3411   87.0321   10.9941 C.3     1  UNL1        0.1116
     19 C          61.3986   86.3393    9.6649 C.ar    1  UNL1       -0.0129
     20 C          60.2025   86.3527    8.7599 C.ar    1  UNL1       -0.0015
     21 C          60.2599   85.6600    7.4307 C.ar    1  UNL1        0.0293
     22 C          61.5135   84.9537    7.0065 C.ar    1  UNL1        0.1401
     23 F          61.5709   84.2610    5.6774 F       1  UNL1       -0.2042
     24 C          62.7096   84.9404    7.9117 C.ar    1  UNL1        0.0293
     25 C          62.6522   85.6331    9.2408 C.ar    1  UNL1       -0.0015
     26 C          66.6260   94.9490   11.4568 C.3     1  UNL1        0.0691
     27 C          67.1307   94.8259   10.0496 C.2     1  UNL1        0.0548
     28 O          66.4453   95.5661    8.9395 O.co2   1  UNL1       -0.5488
     29 O          68.3209   93.9626    9.7525 O.co2   1  UNL1       -0.5488
@<TRIPOS>UNITY_ATOM_ATTR
28 1
charge -1
@<TRIPOS>BOND
     1    14    15    1
     2    15    16   am
     3    16    17    2
     4    16    18    1
     5    18    19    1
     6    19    20   ar
     7    20    21   ar
     8    21    22   ar
     9    22    23    1
    10    22    24   ar
    11    24    25   ar
    12     1    15    1
    13     1     2    1
    14     2     3    1
    15     3     4    1
    16     4     5   ar
    17     5    26    1
    18    26    27    1
    19    27    28   ar
    20    27    29   ar
    21     5     6   ar
    22     6     7   ar
    23     7     8   ar
    24     8     9   ar
    25     9    10   ar
    26    10    11   ar
    27    11    12   ar
    28    12    13    1
    29    25    19   ar
    30    13     1    1
    31    12     4   ar
    32    11     6   ar
@<TRIPOS>MOLECULE
*****
 29 32 0 0 0
SMALL
GASTEIGER

@<TRIPOS>ATOM
      1 C          62.9923   89.6695   11.1722 C.3     1  UNL1        0.0983
      2 C          63.0035   90.6206   10.0124 C.3     1  UNL1        0.0280
      3 C          63.7968   91.8912   10.0920 C.3     1  UNL1        0.0452
      4 C          64.5789   92.2106   11.3315 C.ar    1  UNL1        0.0335
      5 C          65.4474   93.3776   11.6974 C.ar    1  UNL1       -0.0035
      6 C          65.9730   93.1477   13.0834 C.ar    1  UNL1        0.0133
      7 C          66.8763   93.9613   13.9620 C.ar    1  UNL1        0.0012
      8 C          67.2360   93.4658   15.3313 C.ar    1  UNL1        0.0001
      9 C          66.6923   92.1567   15.8220 C.ar    1  UNL1        0.0015
     10 C          65.7889   91.3432   14.9434 C.ar    1  UNL1        0.0172
     11 C          65.4293   91.8387   13.5741 C.ar    1  UNL1        0.0594
     12 N          64.5677   91.2595   12.4913 N.ar    1  UNL1       -0.3292
     13 C          63.7744   89.9890   12.4117 C.3     1  UNL1        0.1254
     14 C          61.0392   88.2968   10.1469 C.3     1  UNL1        0.1149
     15 N          62.1990   88.3989   11.0926 N.am    1  UNL1       -0.2772
     16 C          62.5656   87.2305   11.9588 C.2     1  UNL1        0.2301
     17 O          63.7254   87.3325   12.9046 O.2     1  UNL1       -0.2745
     18 C          61.7723   85.9598   11.8792 C.3     1  UNL1        0.1116
     19 C          62.3953   84.6595   12.2928 C.ar    1  UNL1       -0.0129
     20 C          62.3706   84.2405   13.7328 C.ar    1  UNL1       -0.0015
     21 C          62.9937   82.9401   14.1464 C.ar    1  UNL1        0.0293
     22 C          63.6415   82.0589   13.1198 C.ar    1  UNL1        0.1401
     23 F          64.2645   80.7586   13.5333 F       1  UNL1       -0.2042
     24 C          63.6662   82.4780   11.6797 C.ar    1  UNL1        0.0293
     25 C          63.0431   83.7782   11.2662 C.ar    1  UNL1       -0.0015
     26 C          65.7392   94.5658   10.8297 C.3     1  UNL1        0.0691
     27 C          67.0413   94.6527   10.0899 C.2     1  UNL1        0.0548
     28 O          67.3955   95.9022    9.3393 O.co2   1  UNL1       -0.5488
     29 O          67.9890   93.4901   10.1008 O.co2   1  UNL1       -0.5488
@<TRIPOS>UNITY_ATOM_ATTR
28 1
charge -1
@<TRIPOS>BOND
     1    14    15    1
     2    15    16   am
     3    16    17    2
     4    16    18    1
     5    18    19    1
     6    19    20   ar
     7    20    21   ar
     8    21    22   ar
     9    22    23    1
    10    22    24   ar
    11    24    25   ar
    12     1    15    1
    13     1     2    1
    14     2     3    1
    15     3     4    1
    16     4     5   ar
    17     5    26    1
    18    26    27    1
    19    27    28   ar
    20    27    29   ar
    21     5     6   ar
    22     6     7   ar
    23     7     8   ar
    24     8     9   ar
    25     9    10   ar
    26    10    11   ar
    27    11    12   ar
    28    12    13    1
    29    25    19   ar
    30    13     1    1
    31    12     4   ar
    32    11     6   ar
@<TRIPOS>MOLECULE
*****
 29 32 0 0 0
SMALL
GASTEIGER

@<TRIPOS>ATOM
      1 C          63.0696   89.7712   11.8824 C.3     1  UNL1        0.0983
      2 C          63.5437   89.5025   13.2799 C.3     1  UNL1        0.0280
      3 C          64.5055   90.4455   13.9400 C.3     1  UNL1        0.0452
      4 C          64.9932   91.6572   13.2025 C.ar    1  UNL1        0.0335
      5 C          65.9356   92.7573   13.5919 C.ar    1  UNL1       -0.0035
      6 C          66.0440   93.7059   12.4350 C.ar    1  UNL1        0.0133
      7 C          66.8268   94.9712   12.2445 C.ar    1  UNL1        0.0012
      8 C          66.7341   95.7227   10.9497 C.ar    1  UNL1        0.0001
      9 C          65.8587   95.2088    9.8453 C.ar    1  UNL1        0.0015
     10 C          65.0759   93.9436   10.0358 C.ar    1  UNL1        0.0172
     11 C          65.1686   93.1921   11.3307 C.ar    1  UNL1        0.0594
     12 N          64.5192   91.9259   11.8050 N.ar    1  UNL1       -0.3292
     13 C          63.5574   90.9829   11.1450 C.3     1  UNL1        0.1254
     14 C          61.0972   89.3504   10.2445 C.3     1  UNL1        0.1149
     15 N          62.1078   88.8282   11.2223 N.am    1  UNL1       -0.2772
     16 C          62.1566   87.3630   11.5401 C.2     1  UNL1        0.2301
     17 O          63.1672   86.8409   12.5179 O.2     1  UNL1       -0.2745
     18 C          61.1948   86.4200   10.8800 C.3     1  UNL1        0.1116
     19 C          61.4693   85.9176    9.4935 C.ar    1  UNL1       -0.0129
     20 C          60.4165   86.0342    8.4314 C.ar    1  UNL1       -0.0015
     21 C          60.6910   85.5318    7.0449 C.ar    1  UNL1        0.0293
     22 C          62.0183   84.9128    6.7206 C.ar    1  UNL1        0.1401
     23 F          62.2928   84.4104    5.3342 F       1  UNL1       -0.2042
     24 C          63.0711   84.7962    7.7828 C.ar    1  UNL1        0.0293
     25 C          62.7966   85.2986    9.1691 C.ar    1  UNL1       -0.0015
     26 C          66.6451   92.8862   14.9072 C.3     1  UNL1        0.0691
     27 C          68.0908   92.5022   15.0204 C.2     1  UNL1        0.0548
     28 O          68.9144   92.3080   13.7818 O.co2   1  UNL1       -0.5488
     29 O          68.7128   92.3124   16.3721 O.co2   1  UNL1       -0.5488
@<TRIPOS>UNITY_ATOM_ATTR
28 1
charge -1
@<TRIPOS>BOND
     1    14    15    1
     2    15    16   am
     3    16    17    2
     4    16    18    1
     5    18    19    1
     6    19    20   ar
     7    20    21   ar
     8    21    22   ar
     9    22    23    1
    10    22    24   ar
    11    24    25   ar
    12     1    15    1
    13     1     2    1
    14     2     3    1
    15     3     4    1
    16     4     5   ar
    17     5    26    1
    18    26    27    1
    19    27    28   ar
    20    27    29   ar
    21     5     6   ar
    22     6     7   ar
    23     7     8   ar
    24     8     9   ar
    25     9    10   ar
    26    10    11   ar
    27    11    12   ar
    28    12    13    1
    29    25    19   ar
    30    13     1    1
    31    12     4   ar
    32    11     6   ar
@<TRIPOS>MOLECULE
*****
 29 32 0 0 0
SMALL
GASTEIGER

@<TRIPOS>ATOM
      1 C          61.5073   87.8323    9.9643 C.3     1  UNL1        0.0983
      2 C          61.9346   89.1535   10.5314 C.3     1  UNL1        0.0280
      3 C          62.7396   89.2017   11.7962 C.3     1  UNL1        0.0452
      4 C          63.1172   87.9286   12.4939 C.ar    1  UNL1        0.0335
      5 C          63.8986   87.6643   13.7467 C.ar    1  UNL1       -0.0035
      6 C          63.9542   86.1797   13.9538 C.ar    1  UNL1        0.0133
      7 C          64.5885   85.3384   15.0213 C.ar    1  UNL1        0.0012
      8 C          64.4758   83.8437   14.9641 C.ar    1  UNL1        0.0001
      9 C          63.7287   83.1905   13.8392 C.ar    1  UNL1        0.0015
     10 C          63.0944   84.0319   12.7717 C.ar    1  UNL1        0.0172
     11 C          63.2071   85.5265   12.8290 C.ar    1  UNL1        0.0594
     12 N          62.6898   86.6074   11.9267 N.ar    1  UNL1       -0.3292
     13 C          61.8849   86.5592   10.6619 C.3     1  UNL1        0.1254
     14 C          60.7040   86.5435    7.8562 C.3     1  UNL1        0.1149
     15 N          60.7023   87.7840    8.6994 N.am    1  UNL1       -0.2772
     16 C          59.8956   88.9764    8.2780 C.2     1  UNL1        0.2301
     17 O          59.8939   90.2169    9.1213 O.2     1  UNL1       -0.2745
     18 C          59.0906   88.9282    7.0131 C.3     1  UNL1        0.1116
     19 C          59.1989   90.0403    6.0124 C.ar    1  UNL1       -0.0129
     20 C          57.9648   90.7582    5.5525 C.ar    1  UNL1       -0.0015
     21 C          58.0731   91.8703    4.5517 C.ar    1  UNL1        0.0293
     22 C          59.4156   92.2645    4.0108 C.ar    1  UNL1        0.1401
     23 F          59.5238   93.3765    3.0101 F       1  UNL1       -0.2042
     24 C          60.6497   91.5465    4.4708 C.ar    1  UNL1        0.0293
     25 C          60.5414   90.4345    5.4715 C.ar    1  UNL1       -0.0015
     26 C          64.5160   88.7024   14.6362 C.3     1  UNL1        0.0691
     27 C          63.6585   89.7671   15.2536 C.2     1  UNL1        0.0548
     28 O          64.0121   91.2136   15.0725 O.co2   1  UNL1       -0.5488
     29 O          62.4474   89.3854   16.0521 O.co2   1  UNL1       -0.5488
@<TRIPOS>UNITY_ATOM_ATTR
28 1
charge -1
@<TRIPOS>BOND
     1    14    15    1
     2    15    16   am
     3    16    17    2
     4    16    18    1
     5    18    19    1
     6    19    20   ar
     7    20    21   ar
     8    21    22   ar
     9    22    23    1
    10    22    24   ar
    11    24    25   ar
    12     1    15    1
    13     1     2    1
    14     2     3    1
    15     3     4    1
    16     4     5   ar
    17     5    26    1
    18    26    27    1
    19    27    28   ar
    20    27    29   ar
    21     5     6   ar
    22     6     7   ar
    23     7     8   ar
    24     8     9   ar
    25     9    10   ar
    26    10    11   ar
    27    11    12   ar
    28    12    13    1
    29    25    19   ar
    30    13     1    1
    31    12     4   ar
    32    11     6   ar
@<TRIPOS>MOLECULE
*****
 29 32 0 0 0
SMALL
GASTEIGER

@<TRIPOS>ATOM
      1 C          61.1786   87.0947    9.7312 C.3     1  UNL1        0.0983
      2 C          61.4262   85.7272   10.2956 C.3     1  UNL1        0.0280
      3 C          62.2595   85.5659   11.5324 C.3     1  UNL1        0.0452
      4 C          62.8452   86.7721   12.2047 C.ar    1  UNL1        0.0335
      5 C          63.7009   86.9232   13.4274 C.ar    1  UNL1       -0.0035
      6 C          63.9821   88.3841   13.6187 C.ar    1  UNL1        0.0133
      7 C          64.7710   89.1270   14.6559 C.ar    1  UNL1        0.0012
      8 C          64.8781   90.6216   14.5886 C.ar    1  UNL1        0.0001
      9 C          64.1962   91.3734   13.4841 C.ar    1  UNL1        0.0015
     10 C          63.4074   90.6306   12.4469 C.ar    1  UNL1        0.0172
     11 C          63.3003   89.1359   12.5142 C.ar    1  UNL1        0.0594
     12 N          62.5976   88.1396   11.6404 N.ar    1  UNL1       -0.3292
     13 C          61.7644   88.3009   10.4036 C.3     1  UNL1        0.1254
     14 C          60.1022   86.0805    7.5952 C.3     1  UNL1        0.1149
     15 N          60.3453   87.2561    8.4944 N.am    1  UNL1       -0.2772
     16 C          59.7552   88.5933    8.1570 C.2     1  UNL1        0.2301
     17 O          59.9983   89.7689    9.0563 O.2     1  UNL1       -0.2745
     18 C          58.9218   88.7547    6.9202 C.3     1  UNL1        0.1116
     19 C          59.1450   89.9286    6.0134 C.ar    1  UNL1       -0.0129
     20 C          60.5332   90.2753    5.5633 C.ar    1  UNL1       -0.0015
     21 C          60.7563   91.4492    4.6565 C.ar    1  UNL1        0.0293
     22 C          59.5912   92.2763    4.1999 C.ar    1  UNL1        0.1401
     23 F          59.8143   93.4502    3.2932 F       1  UNL1       -0.2042
     24 C          58.2030   91.9295    4.6501 C.ar    1  UNL1        0.0293
     25 C          57.9798   90.7557    5.5568 C.ar    1  UNL1       -0.0015
     26 C          64.1895   85.8090   14.3049 C.3     1  UNL1        0.0691
     27 C          63.2056   84.9176   15.0031 C.2     1  UNL1        0.0548
     28 O          62.4618   85.4184   16.2056 O.co2   1  UNL1       -0.5488
     29 O          62.9655   83.5255   14.4987 O.co2   1  UNL1       -0.5488
@<TRIPOS>UNITY_ATOM_ATTR
28 1
charge -1
@<TRIPOS>BOND
     1    14    15    1
     2    15    16   am
     3    16    17    2
     4    16    18    1
     5    18    19    1
     6    19    20   ar
     7    20    21   ar
     8    21    22   ar
     9    22    23    1
    10    22    24   ar
    11    24    25   ar
    12     1    15    1
    13     1     2    1
    14     2     3    1
    15     3     4    1
    16     4     5   ar
    17     5    26    1
    18    26    27    1
    19    27    28   ar
    20    27    29   ar
    21     5     6   ar
    22     6     7   ar
    23     7     8   ar
    24     8     9   ar
    25     9    10   ar
    26    10    11   ar
    27    11    12   ar
    28    12    13    1
    29    25    19   ar
    30    13     1    1
    31    12     4   ar
    32    11     6   ar
@<TRIPOS>MOLECULE
*****
 29 32 0 0 0
SMALL
GASTEIGER

@<TRIPOS>ATOM
      1 C          63.5951   88.9602   12.7006 C.3     1  UNL1        0.0983
      2 C          63.9796   88.8965   14.1491 C.3     1  UNL1        0.0280
      3 C          64.7351   90.0311   14.7750 C.3     1  UNL1        0.0452
      4 C          65.1061   91.2294   13.9525 C.ar    1  UNL1        0.0335
      5 C          65.8434   92.4907   14.2922 C.ar    1  UNL1       -0.0035
      6 C          65.9146   93.3339   13.0537 C.ar    1  UNL1        0.0133
      7 C          66.5213   94.6801   12.7894 C.ar    1  UNL1        0.0012
      8 C          66.4345   95.2860   11.4200 C.ar    1  UNL1        0.0001
      9 C          65.7411   94.5458   10.3149 C.ar    1  UNL1        0.0015
     10 C          65.1345   93.1997   10.5791 C.ar    1  UNL1        0.0172
     11 C          65.2213   92.5937   11.9485 C.ar    1  UNL1        0.0594
     12 N          64.7216   91.2931   12.5041 N.ar    1  UNL1       -0.3292
     13 C          63.9661   90.1585   11.8781 C.3     1  UNL1        0.1254
     14 C          61.8688   88.0937   10.9629 C.3     1  UNL1        0.1149
     15 N          62.8395   87.8255   12.0746 N.am    1  UNL1       -0.2772
     16 C          63.0549   86.4228   12.5603 C.2     1  UNL1        0.2301
     17 O          64.0256   86.1546   13.6719 O.2     1  UNL1       -0.2745
     18 C          62.2993   85.2881   11.9342 C.3     1  UNL1        0.1116
     19 C          62.4632   83.8947   12.4649 C.ar    1  UNL1       -0.0129
     20 C          62.8874   82.7874   11.5464 C.ar    1  UNL1       -0.0015
     21 C          63.0512   81.3940   12.0771 C.ar    1  UNL1        0.0293
     22 C          62.7908   81.1079   13.5264 C.ar    1  UNL1        0.1401
     23 F          62.9546   79.7146   14.0571 F       1  UNL1       -0.2042
     24 C          62.3666   82.2154   14.4449 C.ar    1  UNL1        0.0293
     25 C          62.2028   83.6087   13.9143 C.ar    1  UNL1       -0.0015
     26 C          66.4101   92.8465   15.6347 C.3     1  UNL1        0.0691
     27 C          67.8881   93.0462   15.7959 C.2     1  UNL1        0.0548
     28 O          68.8286   91.8993   15.5725 O.co2   1  UNL1       -0.5488
     29 O          68.4254   94.3928   16.1807 O.co2   1  UNL1       -0.5488
@<TRIPOS>UNITY_ATOM_ATTR
28 1
charge -1
@<TRIPOS>BOND
     1    14    15    1
     2    15    16   am
     3    16    17    2
     4    16    18    1
     5    18    19    1
     6    19    20   ar
     7    20    21   ar
     8    21    22   ar
     9    22    23    1
    10    22    24   ar
    11    24    25   ar
    12     1    15    1
    13     1     2    1
    14     2     3    1
    15     3     4    1
    16     4     5   ar
    17     5    26    1
    18    26    27    1
    19    27    28   ar
    20    27    29   ar
    21     5     6   ar
    22     6     7   ar
    23     7     8   ar
    24     8     9   ar
    25     9    10   ar
    26    10    11   ar
    27    11    12   ar
    28    12    13    1
    29    25    19   ar
    30    13     1    1
    31    12     4   ar
    32    11     6   ar
@<TRIPOS>MOLECULE
*****
 29 32 0 0 0
SMALL
GASTEIGER

@<TRIPOS>ATOM
      1 C          63.3918   89.7963   12.2093 C.3     1  UNL1        0.0983
      2 C          62.5896   90.0402   10.9655 C.3     1  UNL1        0.0280
      3 C          61.9838   88.8847   10.2253 C.3     1  UNL1        0.0452
      4 C          62.1803   87.4855   10.7288 C.ar    1  UNL1        0.0335
      5 C          61.7076   86.1581   10.2145 C.ar    1  UNL1       -0.0035
      6 C          62.2177   85.0938   11.1403 C.ar    1  UNL1        0.0133
      7 C          62.0665   83.6015   11.1344 C.ar    1  UNL1        0.0012
      8 C          62.7033   82.7789   12.2150 C.ar    1  UNL1        0.0001
      9 C          63.4912   83.4486   13.3016 C.ar    1  UNL1        0.0015
     10 C          63.6424   84.9409   13.3075 C.ar    1  UNL1        0.0172
     11 C          63.0057   85.7636   12.2269 C.ar    1  UNL1        0.0594
     12 N          62.9825   87.2417   11.9725 N.ar    1  UNL1       -0.3292
     13 C          63.5883   88.3971   12.7128 C.3     1  UNL1        0.1254
     14 C          63.7543   91.1102   14.4212 C.3     1  UNL1        0.1149
     15 N          63.9977   90.9518   12.9496 N.am    1  UNL1       -0.2772
     16 C          64.8468   91.9488   12.2181 C.2     1  UNL1        0.2301
     17 O          65.0901   91.7904   10.7465 O.2     1  UNL1       -0.2745
     18 C          65.4526   93.1043   12.9584 C.3     1  UNL1        0.1116
     19 C          66.5592   92.8670   13.9428 C.ar    1  UNL1       -0.0129
     20 C          67.8763   92.3235   13.4740 C.ar    1  UNL1       -0.0015
     21 C          68.9830   92.0861   14.4584 C.ar    1  UNL1        0.0293
     22 C          68.7724   92.3924   15.9117 C.ar    1  UNL1        0.1401
     23 F          69.8790   92.1551   16.8961 F       1  UNL1       -0.2042
     24 C          67.4553   92.9359   16.3805 C.ar    1  UNL1        0.0293
     25 C          66.3487   93.1732   15.3961 C.ar    1  UNL1       -0.0015
     26 C          60.8716   85.9341    8.9893 C.3     1  UNL1        0.0691
     27 C          61.4964   85.3699    7.7478 C.2     1  UNL1        0.0548
     28 O          60.6400   85.0353    6.5626 O.co2   1  UNL1       -0.5488
     29 O          62.9777   85.1404    7.6914 O.co2   1  UNL1       -0.5488
@<TRIPOS>UNITY_ATOM_ATTR
28 1
charge -1
@<TRIPOS>BOND
     1    14    15    1
     2    15    16   am
     3    16    17    2
     4    16    18    1
     5    18    19    1
     6    19    20   ar
     7    20    21   ar
     8    21    22   ar
     9    22    23    1
    10    22    24   ar
    11    24    25   ar
    12     1    15    1
    13     1     2    1
    14     2     3    1
    15     3     4    1
    16     4     5   ar
    17     5    26    1
    18    26    27    1
    19    27    28   ar
    20    27    29   ar
    21     5     6   ar
    22     6     7   ar
    23     7     8   ar
    24     8     9   ar
    25     9    10   ar
    26    10    11   ar
    27    11    12   ar
    28    12    13    1
    29    25    19   ar
    30    13     1    1
    31    12     4   ar
    32    11     6   ar
@<TRIPOS>MOLECULE
*****
 29 32 0 0 0
SMALL
GASTEIGER

@<TRIPOS>ATOM
      1 C          63.7081   89.9848   11.9241 C.3     1  UNL1        0.0983
      2 C          63.5526   90.9899   10.8215 C.3     1  UNL1        0.0280
      3 C          64.2784   92.3006   10.8937 C.3     1  UNL1        0.0452
      4 C          65.1597   92.6062   12.0684 C.ar    1  UNL1        0.0335
      5 C          65.9941   93.8043   12.4124 C.ar    1  UNL1       -0.0035
      6 C          66.6652   93.5397   13.7275 C.ar    1  UNL1        0.0133
      7 C          67.6042   94.3628   14.5587 C.ar    1  UNL1        0.0012
      8 C          68.1236   93.8241   15.8587 C.ar    1  UNL1        0.0001
      9 C          67.7040   92.4625   16.3275 C.ar    1  UNL1        0.0015
     10 C          66.7650   91.6394   15.4964 C.ar    1  UNL1        0.0172
     11 C          66.2456   92.1781   14.1964 C.ar    1  UNL1        0.0594
     12 N          65.3151   91.6012   13.1710 N.ar    1  UNL1       -0.3292
     13 C          64.5893   90.2905   13.0988 C.3     1  UNL1        0.1254
     14 C          63.2385   87.6170   12.8849 C.3     1  UNL1        0.1149
     15 N          62.9823   88.6740   11.8519 N.am    1  UNL1       -0.2772
     16 C          62.0002   88.4205   10.7468 C.2     1  UNL1        0.2301
     17 O          61.7439   89.4775    9.7139 O.2     1  UNL1       -0.2745
     18 C          61.2744   87.1097   10.6747 C.3     1  UNL1        0.1116
     19 C          62.0448   85.8344   10.5009 C.ar    1  UNL1       -0.0129
     20 C          62.7048   85.5297    9.1889 C.ar    1  UNL1       -0.0015
     21 C          63.4751   84.2544    9.0151 C.ar    1  UNL1        0.0293
     22 C          63.5855   83.2838   10.1535 C.ar    1  UNL1        0.1401
     23 F          64.3558   82.0086    9.9798 F       1  UNL1       -0.2042
     24 C          62.9254   83.5885   11.4656 C.ar    1  UNL1        0.0293
     25 C          62.1551   84.8638   11.6393 C.ar    1  UNL1       -0.0015
     26 C          66.1330   95.0486   11.5863 C.3     1  UNL1        0.0691
     27 C          66.8335   94.9947   10.2609 C.2     1  UNL1        0.0548
     28 O          66.3914   95.8904    9.1419 O.co2   1  UNL1       -0.5488
     29 O          67.9761   94.0449   10.0546 O.co2   1  UNL1       -0.5488
@<TRIPOS>UNITY_ATOM_ATTR
28 1
charge -1
@<TRIPOS>BOND
     1    14    15    1
     2    15    16   am
     3    16    17    2
     4    16    18    1
     5    18    19    1
     6    19    20   ar
     7    20    21   ar
     8    21    22   ar
     9    22    23    1
    10    22    24   ar
    11    24    25   ar
    12     1    15    1
    13     1     2    1
    14     2     3    1
    15     3     4    1
    16     4     5   ar
    17     5    26    1
    18    26    27    1
    19    27    28   ar
    20    27    29   ar
    21     5     6   ar
    22     6     7   ar
    23     7     8   ar
    24     8     9   ar
    25     9    10   ar
    26    10    11   ar
    27    11    12   ar
    28    12    13    1
    29    25    19   ar
    30    13     1    1
    31    12     4   ar
    32    11     6   ar
@<TRIPOS>MOLECULE
*****
 29 32 0 0 0
SMALL
GASTEIGER

@<TRIPOS>ATOM
      1 C          63.9030   85.6807   14.1399 C.3     1  UNL1        0.0983
      2 C          64.5277   86.3331   15.3374 C.3     1  UNL1        0.0280
      3 C          64.7087   87.8217   15.3714 C.3     1  UNL1        0.0452
      4 C          64.2649   88.6579   14.2079 C.ar    1  UNL1        0.0335
      5 C          64.3137   90.1361   13.9577 C.ar    1  UNL1       -0.0035
      6 C          63.7191   90.3973   12.6055 C.ar    1  UNL1        0.0133
      7 C          63.5029   91.6640   11.8318 C.ar    1  UNL1        0.0012
      8 C          62.8705   91.6139   10.4726 C.ar    1  UNL1        0.0001
      9 C          62.4542   90.2971    9.8871 C.ar    1  UNL1        0.0015
     10 C          62.6704   89.0304   10.6609 C.ar    1  UNL1        0.0172
     11 C          63.3028   89.0805   12.0201 C.ar    1  UNL1        0.0594
     12 N          63.6402   88.0055   13.0104 N.ar    1  UNL1       -0.3292
     13 C          63.4592   86.5169   12.9764 C.3     1  UNL1        0.1254
     14 C          64.8686   83.3056   13.7191 C.3     1  UNL1        0.1149
     15 N          63.7219   84.1919   14.1059 N.am    1  UNL1       -0.2772
     16 C          62.3942   83.5897   14.4588 C.2     1  UNL1        0.2301
     17 O          61.2476   84.4760   14.8456 O.2     1  UNL1       -0.2745
     18 C          62.2132   82.1010   14.4248 C.3     1  UNL1        0.1116
     19 C          62.4306   81.3481   13.1457 C.ar    1  UNL1       -0.0129
     20 C          62.3728   79.8492   13.1387 C.ar    1  UNL1       -0.0015
     21 C          62.5902   79.0963   11.8596 C.ar    1  UNL1        0.0293
     22 C          62.8653   79.8423   10.5876 C.ar    1  UNL1        0.1401
     23 F          63.0827   79.0895    9.3087 F       1  UNL1       -0.2042
     24 C          62.9231   81.3412   10.5948 C.ar    1  UNL1        0.0293
     25 C          62.7057   82.0941   11.8738 C.ar    1  UNL1       -0.0015
     26 C          64.8610   91.1714   14.8950 C.3     1  UNL1        0.0691
     27 C          64.1505   91.4681   16.1824 C.2     1  UNL1        0.0548
     28 O          63.0069   90.6039   16.6243 O.co2   1  UNL1       -0.5488
     29 O          64.5835   92.6291   17.0277 O.co2   1  UNL1       -0.5488
@<TRIPOS>UNITY_ATOM_ATTR
28 1
charge -1
@<TRIPOS>BOND
     1    14    15    1
     2    15    16   am
     3    16    17    2
     4    16    18    1
     5    18    19    1
     6    19    20   ar
     7    20    21   ar
     8    21    22   ar
     9    22    23    1
    10    22    24   ar
    11    24    25   ar
    12     1    15    1
    13     1     2    1
    14     2     3    1
    15     3     4    1
    16     4     5   ar
    17     5    26    1
    18    26    27    1
    19    27    28   ar
    20    27    29   ar
    21     5     6   ar
    22     6     7   ar
    23     7     8   ar
    24     8     9   ar
    25     9    10   ar
    26    10    11   ar
    27    11    12   ar
    28    12    13    1
    29    25    19   ar
    30    13     1    1
    31    12     4   ar
    32    11     6   ar
