@<TRIPOS>MOLECULE
*****
 34 37 0 0 0
SMALL
GASTEIGER

@<TRIPOS>ATOM
      1 N          63.9041   87.2767   15.4638 N.am    1  UNL1       -0.2681
      2 C          64.2977   88.4215   14.5782 C.2     1  UNL1        0.3082
      3 O          64.2654   88.2617   13.0871 O.2     1  UNL1       -0.2522
      4 N          64.7237   89.7262   15.1836 N.am    1  UNL1       -0.2681
      5 H          63.9254   87.3816   16.4425 H       1  UNL1        0.1564
      6 H          64.7450   89.8310   16.1623 H       1  UNL1        0.1564
      7 C          62.8598   84.5563   12.7696 C.ar    1  UNL1        0.0546
      8 C          62.6262   83.3627   13.6478 C.ar    1  UNL1        0.0046
      9 C          62.8185   83.4740   15.1312 C.ar    1  UNL1        0.0014
     10 C          63.2445   84.7786   15.7366 C.ar    1  UNL1        0.0147
     11 C          63.4781   85.9720   14.8584 C.ar    1  UNL1        0.0517
     12 C          63.2858   85.8609   13.3750 C.ar    1  UNL1        0.0192
     13 N          62.2276   85.6413   10.4952 N.am    1  UNL1       -0.3025
     14 C          62.6675   84.4451   11.2862 C.2     1  UNL1        0.2458
     15 O          62.9151   83.1377   10.5937 O.2     1  UNL1       -0.2701
     16 H          62.0651   86.4993   10.9496 H       1  UNL1        0.1497
     17 C          60.7202   85.9059    8.3957 C.3     1  UNL1        0.0213
     18 C          62.0353   85.5301    9.0117 C.3     1  UNL1        0.0720
     19 C          63.1580   85.0432    8.1443 C.3     1  UNL1        0.0213
     20 C          65.1173   90.8709   14.2980 C.ar    1  UNL1        0.0516
     21 C          64.3070   91.1868   13.0758 C.ar    1  UNL1        0.0147
     22 C          64.7005   92.3316   12.1902 C.ar    1  UNL1        0.0010
     23 C          65.9046   93.1606   12.5266 C.ar    1  UNL1       -0.0014
     24 C          66.7149   92.8448   13.7488 C.ar    1  UNL1        0.0010
     25 C          66.3213   91.7000   14.6344 C.ar    1  UNL1        0.0147
     26 C          66.2982   94.3055   11.6409 C.2     1  UNL1        0.0158
     27 C          65.9313   95.7091   12.0220 C.2     1  UNL1        0.0487
     28 C          66.3249   96.8539   11.1364 C.2     1  UNL1        0.2355
     29 N          67.0853   96.5951    9.8695 N.2     1  UNL1       -0.0325
     30 C          67.4522   95.1915    9.4884 C.2     1  UNL1        0.3799
     31 N          68.1928   94.6325    8.3099 N.2     1  UNL1       -0.0106
     32 C          68.2569   93.1422    8.4672 C.2     1  UNL1        0.3351
     33 N          67.5560   92.7801    9.7430 N.2     1  UNL1       -0.2103
     34 C          67.0586   94.0467   10.3742 C.3     1  UNL1        0.2404
@<TRIPOS>BOND
     1    17    18    1
     2    18    19    1
     3    18    13    1
     4    13    14   am
     5    14    15    2
     6    14     7    1
     7     7     8   ar
     8     8     9   ar
     9     9    10   ar
    10    10    11   ar
    11    11     1    1
    12     1     2   am
    13     2     3    2
    14     2     4   am
    15     4    20    1
    16    20    21   ar
    17    21    22   ar
    18    22    23   ar
    19    23    26    1
    20    26    27    2
    21    27    28    1
    22    28    29    2
    23    29    30    1
    24    30    31    2
    25    31    32    1
    26    32    33    2
    27    33    34    1
    28    23    24   ar
    29    24    25   ar
    30    11    12   ar
    31    12     7   ar
    32    25    20   ar
    33    34    26    1
    34    34    30    1
    35    13    16    1
    36     1     5    1
    37     4     6    1
@<TRIPOS>MOLECULE
*****
 34 37 0 0 0
SMALL
GASTEIGER

@<TRIPOS>ATOM
      1 N          58.9325   90.4342    6.5192 N.am    1  UNL1       -0.2681
      2 C          59.7666   90.8721    5.3520 C.2     1  UNL1        0.3082
      3 O          61.0919   90.2201    5.0907 O.2     1  UNL1       -0.2522
      4 N          59.2753   91.9621    4.4461 N.am    1  UNL1       -0.2681
      5 H          58.0626   90.8622    6.6907 H       1  UNL1        0.1564
      6 H          58.4055   92.3901    4.6176 H       1  UNL1        0.1564
      7 C          60.5636   88.6010    9.6384 C.ar    1  UNL1        0.0546
      8 C          60.4061   87.1642    9.2370 C.ar    1  UNL1        0.0046
      9 C          59.7573   86.8176    7.9297 C.ar    1  UNL1        0.0014
     10 C          59.2662   87.9076    7.0238 C.ar    1  UNL1        0.0147
     11 C          59.4237   89.3442    7.4252 C.ar    1  UNL1        0.0517
     12 C          60.0724   89.6910    8.7324 C.ar    1  UNL1        0.0192
     13 N          62.6980   89.1421   11.0174 N.am    1  UNL1       -0.3025
     14 C          61.2123   88.9477   10.9456 C.2     1  UNL1        0.2458
     15 O          60.3755   89.0999   12.1811 O.2     1  UNL1       -0.2701
     16 H          63.2473   89.0422   10.2065 H       1  UNL1        0.1497
     17 C          63.6748   90.9173   12.6436 C.3     1  UNL1        0.0213
     18 C          63.3468   89.4888   12.3246 C.3     1  UNL1        0.0720
     19 C          63.6674   88.4070   13.3129 C.3     1  UNL1        0.0213
     20 C          60.1094   92.4000    3.2789 C.ar    1  UNL1        0.0516
     21 C          59.4681   93.1081    2.1224 C.ar    1  UNL1        0.0147
     22 C          60.3021   93.5460    0.9552 C.ar    1  UNL1        0.0010
     23 C          61.7777   93.2759    0.9444 C.ar    1  UNL1       -0.0014
     24 C          62.4190   92.5679    2.1008 C.ar    1  UNL1        0.0010
     25 C          61.5848   92.1299    3.2680 C.ar    1  UNL1        0.0147
     26 C          62.6118   93.7138   -0.2229 C.2     1  UNL1        0.0158
     27 C          62.3372   93.1614   -1.5902 C.2     1  UNL1        0.0487
     28 C          63.1712   93.5993   -2.7574 C.2     1  UNL1        0.2355
     29 N          64.2799   94.5897   -2.5575 N.2     1  UNL1       -0.0325
     30 C          64.5545   95.1422   -1.1902 C.2     1  UNL1        0.3799
     31 N          65.5718   96.1246   -0.6904 N.2     1  UNL1       -0.0106
     32 C          65.3664   96.2939    0.7858 C.2     1  UNL1        0.3351
     33 N          64.2222   95.4160    1.1983 N.2     1  UNL1       -0.2103
     34 C          63.7204   94.7042   -0.0229 C.3     1  UNL1        0.2404
@<TRIPOS>BOND
     1    17    18    1
     2    18    19    1
     3    18    13    1
     4    13    14   am
     5    14    15    2
     6    14     7    1
     7     7     8   ar
     8     8     9   ar
     9     9    10   ar
    10    10    11   ar
    11    11     1    1
    12     1     2   am
    13     2     3    2
    14     2     4   am
    15     4    20    1
    16    20    21   ar
    17    21    22   ar
    18    22    23   ar
    19    23    26    1
    20    26    27    2
    21    27    28    1
    22    28    29    2
    23    29    30    1
    24    30    31    2
    25    31    32    1
    26    32    33    2
    27    33    34    1
    28    23    24   ar
    29    24    25   ar
    30    11    12   ar
    31    12     7   ar
    32    25    20   ar
    33    34    26    1
    34    34    30    1
    35    13    16    1
    36     1     5    1
    37     4     6    1
@<TRIPOS>MOLECULE
*****
 34 37 0 0 0
SMALL
GASTEIGER

@<TRIPOS>ATOM
      1 N          58.9284   90.3986    6.1576 N.am    1  UNL1       -0.2681
      2 C          59.9115   91.0154    5.2074 C.2     1  UNL1        0.3082
      3 O          61.3449   90.5735    5.2196 O.2     1  UNL1       -0.2522
      4 N          59.4612   92.0741    4.2448 N.am    1  UNL1       -0.2681
      5 H          57.9876   90.6886    6.1496 H       1  UNL1        0.1564
      6 H          58.5205   92.3641    4.2367 H       1  UNL1        0.1564
      7 C          60.4911   88.6713    9.3708 C.ar    1  UNL1        0.0546
      8 C          60.2791   87.2224    9.0452 C.ar    1  UNL1        0.0046
      9 C          59.6168   86.8324    7.7571 C.ar    1  UNL1        0.0014
     10 C          59.1666   87.8911    6.7946 C.ar    1  UNL1        0.0147
     11 C          59.3787   89.3399    7.1202 C.ar    1  UNL1        0.0517
     12 C          60.0409   89.7300    8.4083 C.ar    1  UNL1        0.0192
     13 N          62.6137   89.4040   10.6778 N.am    1  UNL1       -0.3025
     14 C          61.1534   89.0614   10.6589 C.2     1  UNL1        0.2458
     15 O          60.3554   89.1089   11.9281 O.2     1  UNL1       -0.2701
     16 H          63.1374   89.3728    9.8447 H       1  UNL1        0.1497
     17 C          63.5943   88.7478   12.9925 C.3     1  UNL1        0.0213
     18 C          63.2760   89.7941   11.9659 C.3     1  UNL1        0.0720
     19 C          63.6199   91.2305   12.2273 C.3     1  UNL1        0.0213
     20 C          60.4443   92.6909    3.2946 C.ar    1  UNL1        0.0516
     21 C          61.7932   92.0643    3.0994 C.ar    1  UNL1        0.0147
     22 C          62.7762   92.6811    2.1492 C.ar    1  UNL1        0.0010
     23 C          62.4105   93.9245    1.3940 C.ar    1  UNL1       -0.0014
     24 C          61.0617   94.5511    1.5892 C.ar    1  UNL1        0.0010
     25 C          60.0786   93.9343    2.5395 C.ar    1  UNL1        0.0147
     26 C          63.3937   94.5413    0.4438 C.2     1  UNL1        0.0158
     27 C          64.4286   95.5003    0.9530 C.2     1  UNL1        0.0487
     28 C          65.4117   96.1171    0.0028 C.2     1  UNL1        0.2355
     29 N          65.3600   95.7749   -1.4568 N.2     1  UNL1       -0.0325
     30 C          64.3251   94.8160   -1.9660 C.2     1  UNL1        0.3799
     31 N          64.0323   94.2921   -3.3408 N.2     1  UNL1       -0.0106
     32 C          62.8682   93.3516   -3.2401 C.2     1  UNL1        0.3351
     33 N          62.4415   93.2941   -1.8032 N.2     1  UNL1       -0.2103
     34 C          63.3420   94.1992   -1.0158 C.3     1  UNL1        0.2404
@<TRIPOS>BOND
     1    17    18    1
     2    18    19    1
     3    18    13    1
     4    13    14   am
     5    14    15    2
     6    14     7    1
     7     7     8   ar
     8     8     9   ar
     9     9    10   ar
    10    10    11   ar
    11    11     1    1
    12     1     2   am
    13     2     3    2
    14     2     4   am
    15     4    20    1
    16    20    21   ar
    17    21    22   ar
    18    22    23   ar
    19    23    26    1
    20    26    27    2
    21    27    28    1
    22    28    29    2
    23    29    30    1
    24    30    31    2
    25    31    32    1
    26    32    33    2
    27    33    34    1
    28    23    24   ar
    29    24    25   ar
    30    11    12   ar
    31    12     7   ar
    32    25    20   ar
    33    34    26    1
    34    34    30    1
    35    13    16    1
    36     1     5    1
    37     4     6    1
@<TRIPOS>MOLECULE
*****
 34 37 0 0 0
SMALL
GASTEIGER

@<TRIPOS>ATOM
      1 N          58.9494   88.7794    6.2671 N.am    1  UNL1       -0.2681
      2 C          59.7994   88.4582    7.4604 C.2     1  UNL1        0.3082
      3 O          60.7851   89.4663    7.9724 O.2     1  UNL1       -0.2522
      4 N          59.6637   87.1288    8.1420 N.am    1  UNL1       -0.2681
      5 H          58.3025   88.1178    5.9311 H       1  UNL1        0.1564
      6 H          59.0167   86.4672    7.8060 H       1  UNL1        0.1564
      7 C          60.4855   91.7811    4.1740 C.ar    1  UNL1        0.0546
      8 C          59.3563   92.7675    4.2225 C.ar    1  UNL1        0.0046
      9 C          58.0916   92.4244    4.9525 C.ar    1  UNL1        0.0014
     10 C          57.9560   91.0951    5.6340 C.ar    1  UNL1        0.0147
     11 C          59.0851   90.1088    5.5855 C.ar    1  UNL1        0.0517
     12 C          60.3498   90.4517    4.8556 C.ar    1  UNL1        0.0192
     13 N          61.7434   93.1962    2.3949 N.am    1  UNL1       -0.3025
     14 C          61.7501   92.1241    3.4441 C.2     1  UNL1        0.2458
     15 O          63.0215   91.3950    3.7631 O.2     1  UNL1       -0.2701
     16 H          60.9089   93.6747    2.1855 H       1  UNL1        0.1497
     17 C          64.1032   94.2828    2.3704 C.3     1  UNL1        0.0213
     18 C          63.0081   93.5392    1.6649 C.3     1  UNL1        0.0720
     19 C          63.1775   93.1387    0.2294 C.3     1  UNL1        0.0213
     20 C          60.5137   86.8076    9.3354 C.ar    1  UNL1        0.0516
     21 C          60.2826   87.5208   10.6347 C.ar    1  UNL1        0.0147
     22 C          61.1325   87.1996   11.8280 C.ar    1  UNL1        0.0010
     23 C          62.2137   86.1652   11.7223 C.ar    1  UNL1       -0.0014
     24 C          62.4448   85.4520   10.4231 C.ar    1  UNL1        0.0010
     25 C          61.5948   85.7733    9.2296 C.ar    1  UNL1        0.0147
     26 C          63.0637   85.8440   12.9157 C.2     1  UNL1        0.0158
     27 C          63.8234   86.9347   13.6109 C.2     1  UNL1        0.0487
     28 C          64.6733   86.6135   14.8043 C.2     1  UNL1        0.2355
     29 N          64.7637   85.2015   15.3027 N.2     1  UNL1       -0.0325
     30 C          64.0041   84.1108   14.6075 C.2     1  UNL1        0.3799
     31 N          63.8993   82.6374   14.8682 N.2     1  UNL1       -0.0106
     32 C          62.9845   82.0480   13.8359 C.2     1  UNL1        0.3351
     33 N          62.5239   83.1571   12.9372 N.2     1  UNL1       -0.2103
     34 C          63.1541   84.4320   13.4140 C.3     1  UNL1        0.2404
@<TRIPOS>BOND
     1    17    18    1
     2    18    19    1
     3    18    13    1
     4    13    14   am
     5    14    15    2
     6    14     7    1
     7     7     8   ar
     8     8     9   ar
     9     9    10   ar
    10    10    11   ar
    11    11     1    1
    12     1     2   am
    13     2     3    2
    14     2     4   am
    15     4    20    1
    16    20    21   ar
    17    21    22   ar
    18    22    23   ar
    19    23    26    1
    20    26    27    2
    21    27    28    1
    22    28    29    2
    23    29    30    1
    24    30    31    2
    25    31    32    1
    26    32    33    2
    27    33    34    1
    28    23    24   ar
    29    24    25   ar
    30    11    12   ar
    31    12     7   ar
    32    25    20   ar
    33    34    26    1
    34    34    30    1
    35    13    16    1
    36     1     5    1
    37     4     6    1
@<TRIPOS>MOLECULE
*****
 34 37 0 0 0
SMALL
GASTEIGER

@<TRIPOS>ATOM
      1 N          58.6561   91.6294    4.1648 N.am    1  UNL1       -0.2681
      2 C          59.4032   90.8551    5.2098 C.2     1  UNL1        0.3082
      3 O          60.9008   90.7837    5.1626 O.2     1  UNL1       -0.2522
      4 N          58.6529   90.1523    6.3021 N.am    1  UNL1       -0.2681
      5 H          57.6732   91.6763    4.1957 H       1  UNL1        0.1564
      6 H          57.6700   90.1992    6.3331 H       1  UNL1        0.1564
      7 C          59.5076   93.2551    0.6459 C.ar    1  UNL1        0.0546
      8 C          60.9072   93.7378    0.8879 C.ar    1  UNL1        0.0046
      9 C          61.5562   93.5177    2.2222 C.ar    1  UNL1        0.0014
     10 C          60.8059   92.8149    3.3144 C.ar    1  UNL1        0.0147
     11 C          59.4064   92.3322    3.0724 C.ar    1  UNL1        0.0517
     12 C          58.7573   92.5523    1.7382 C.ar    1  UNL1        0.0192
     13 N          57.6365   92.6917   -1.0662 N.am    1  UNL1       -0.3025
     14 C          58.8586   93.4752   -0.6883 C.2     1  UNL1        0.2458
     15 O          59.4315   94.4788   -1.6446 O.2     1  UNL1       -0.2701
     16 H          57.2604   92.0331   -0.4386 H       1  UNL1        0.1497
     17 C          57.4599   92.1451   -3.6000 C.3     1  UNL1        0.0213
     18 C          56.9874   92.9118   -2.4005 C.3     1  UNL1        0.0720
     19 C          55.8658   93.8986   -2.5351 C.3     1  UNL1        0.0213
     20 C          59.4001   89.3781    7.3472 C.ar    1  UNL1        0.0516
     21 C          60.1363   90.1032    8.4345 C.ar    1  UNL1        0.0147
     22 C          60.8835   89.3290    9.4795 C.ar    1  UNL1        0.0010
     23 C          60.8945   87.8295    9.4374 C.ar    1  UNL1       -0.0014
     24 C          60.1582   87.1044    8.3501 C.ar    1  UNL1        0.0010
     25 C          59.4110   87.8787    7.3050 C.ar    1  UNL1        0.0147
     26 C          61.6417   87.0553   10.4825 C.2     1  UNL1        0.0158
     27 C          61.6149   85.5556   10.4670 C.2     1  UNL1        0.0487
     28 C          62.3621   84.7814   11.5121 C.2     1  UNL1        0.2355
     29 N          63.1361   85.5068   12.5727 N.2     1  UNL1       -0.0325
     30 C          63.1628   87.0065   12.5881 C.2     1  UNL1        0.3799
     31 N          63.8334   87.9890   13.5019 N.2     1  UNL1       -0.0106
     32 C          63.5006   89.3705   13.0215 C.2     1  UNL1        0.3351
     33 N          62.6244   89.2418   11.8109 N.2     1  UNL1       -0.2103
     34 C          62.4156   87.7807   11.5430 C.3     1  UNL1        0.2404
@<TRIPOS>BOND
     1    17    18    1
     2    18    19    1
     3    18    13    1
     4    13    14   am
     5    14    15    2
     6    14     7    1
     7     7     8   ar
     8     8     9   ar
     9     9    10   ar
    10    10    11   ar
    11    11     1    1
    12     1     2   am
    13     2     3    2
    14     2     4   am
    15     4    20    1
    16    20    21   ar
    17    21    22   ar
    18    22    23   ar
    19    23    26    1
    20    26    27    2
    21    27    28    1
    22    28    29    2
    23    29    30    1
    24    30    31    2
    25    31    32    1
    26    32    33    2
    27    33    34    1
    28    23    24   ar
    29    24    25   ar
    30    11    12   ar
    31    12     7   ar
    32    25    20   ar
    33    34    26    1
    34    34    30    1
    35    13    16    1
    36     1     5    1
    37     4     6    1
@<TRIPOS>MOLECULE
*****
 34 37 0 0 0
SMALL
GASTEIGER

@<TRIPOS>ATOM
      1 N          58.6918   91.9832    3.7842 N.am    1  UNL1       -0.2681
      2 C          59.4023   91.1676    4.8233 C.2     1  UNL1        0.3082
      3 O          60.8816   90.9428    4.7181 O.2     1  UNL1       -0.2522
      4 N          58.6334   90.5766    5.9678 N.am    1  UNL1       -0.2681
      5 H          57.7209   92.1307    3.8533 H       1  UNL1        0.1564
      6 H          57.6625   90.7241    6.0369 H       1  UNL1        0.1564
      7 C          61.5997   93.7305    1.7247 C.ar    1  UNL1        0.0546
      8 C          60.9981   93.7560    0.3508 C.ar    1  UNL1        0.0046
      9 C          59.6278   93.1906    0.1214 C.ar    1  UNL1        0.0014
     10 C          58.8591   92.5997    1.2659 C.ar    1  UNL1        0.0147
     11 C          59.4606   92.5742    2.6397 C.ar    1  UNL1        0.0517
     12 C          60.8309   93.1395    2.8692 C.ar    1  UNL1        0.0192
     13 N          63.2370   95.7474    1.6860 N.am    1  UNL1       -0.3025
     14 C          62.9699   94.2958    1.9541 C.2     1  UNL1        0.2458
     15 O          64.0733   93.4097    2.4515 O.2     1  UNL1       -0.2701
     16 H          62.5128   96.3290    1.3595 H       1  UNL1        0.1497
     17 C          65.5007   96.6109    0.7479 C.3     1  UNL1        0.0213
     18 C          64.6073   96.3128    1.9154 C.3     1  UNL1        0.0720
     19 C          65.0840   96.5801    3.3122 C.3     1  UNL1        0.0213
     20 C          59.3439   89.7610    7.0069 C.ar    1  UNL1        0.0516
     21 C          60.1700   90.4408    8.0584 C.ar    1  UNL1        0.0147
     22 C          60.8805   89.6251    9.0975 C.ar    1  UNL1        0.0010
     23 C          60.7649   88.1295    9.0852 C.ar    1  UNL1       -0.0014
     24 C          59.9388   87.4497    8.0339 C.ar    1  UNL1        0.0010
     25 C          59.2283   88.2655    6.9947 C.ar    1  UNL1        0.0147
     26 C          61.4754   87.3139   10.1244 C.2     1  UNL1        0.0158
     27 C          61.4204   85.8159   10.0689 C.2     1  UNL1        0.0487
     28 C          62.1308   85.0003   11.1080 C.2     1  UNL1        0.2355
     29 N          62.8964   85.6825   12.2028 N.2     1  UNL1       -0.0325
     30 C          62.9514   87.1805   12.2583 C.2     1  UNL1        0.3799
     31 N          63.6216   88.1256   13.2111 N.2     1  UNL1       -0.0106
     32 C          63.3252   89.5253   12.7607 C.2     1  UNL1        0.3351
     33 N          62.4720   89.4454   11.5296 N.2     1  UNL1       -0.2103
     34 C          62.2409   87.9962   11.2191 C.3     1  UNL1        0.2404
@<TRIPOS>BOND
     1    17    18    1
     2    18    19    1
     3    18    13    1
     4    13    14   am
     5    14    15    2
     6    14     7    1
     7     7     8   ar
     8     8     9   ar
     9     9    10   ar
    10    10    11   ar
    11    11     1    1
    12     1     2   am
    13     2     3    2
    14     2     4   am
    15     4    20    1
    16    20    21   ar
    17    21    22   ar
    18    22    23   ar
    19    23    26    1
    20    26    27    2
    21    27    28    1
    22    28    29    2
    23    29    30    1
    24    30    31    2
    25    31    32    1
    26    32    33    2
    27    33    34    1
    28    23    24   ar
    29    24    25   ar
    30    11    12   ar
    31    12     7   ar
    32    25    20   ar
    33    34    26    1
    34    34    30    1
    35    13    16    1
    36     1     5    1
    37     4     6    1
@<TRIPOS>MOLECULE
*****
 34 37 0 0 0
SMALL
GASTEIGER

@<TRIPOS>ATOM
      1 N          59.9202   88.7221   10.9385 N.am    1  UNL1       -0.2681
      2 C          61.2134   89.3021   11.4295 C.2     1  UNL1        0.3082
      3 O          62.3574   89.4958   10.4790 O.2     1  UNL1       -0.2522
      4 N          61.3626   89.6884   12.8713 N.am    1  UNL1       -0.2681
      5 H          59.1694   88.5950   11.5624 H       1  UNL1        0.1564
      6 H          60.6117   89.5613   13.4952 H       1  UNL1        0.1564
      7 C          59.4746   89.0110    7.0055 C.ar    1  UNL1        0.0546
      8 C          59.4725   87.5631    6.6133 C.ar    1  UNL1        0.0046
      9 C          59.6196   86.5016    7.6629 C.ar    1  UNL1        0.0014
     10 C          59.7689   86.8880    9.1046 C.ar    1  UNL1        0.0147
     11 C          59.7710   88.3358    9.4967 C.ar    1  UNL1        0.0517
     12 C          59.6238   89.3973    8.4472 C.ar    1  UNL1        0.0192
     13 N          60.5421   90.7708    5.4200 N.am    1  UNL1       -0.3025
     14 C          59.3275   90.0725    5.9560 C.2     1  UNL1        0.2458
     15 O          57.9658   90.4357    5.4424 O.2     1  UNL1       -0.2701
     16 H          61.4358   90.5324    5.7571 H       1  UNL1        0.1497
     17 C          61.4709   92.0256    3.3433 C.3     1  UNL1        0.0213
     18 C          60.3950   91.8323    4.3704 C.3     1  UNL1        0.0720
     19 C          59.1719   92.7004    4.3481 C.3     1  UNL1        0.0213
     20 C          62.6557   90.2684   13.3624 C.ar    1  UNL1        0.0516
     21 C          63.1320   89.9689   14.7529 C.ar    1  UNL1        0.0147
     22 C          64.4252   90.5488   15.2440 C.ar    1  UNL1        0.0010
     23 C          65.2422   91.4284   14.3445 C.ar    1  UNL1       -0.0014
     24 C          64.7660   91.7279   12.9540 C.ar    1  UNL1        0.0010
     25 C          63.4728   91.1479   12.4630 C.ar    1  UNL1        0.0147
     26 C          66.5354   92.0084   14.8357 C.2     1  UNL1        0.0158
     27 C          66.5916   92.6942   16.1685 C.2     1  UNL1        0.0487
     28 C          67.8847   93.2742   16.6596 C.2     1  UNL1        0.2355
     29 N          69.1219   93.1684   15.8179 N.2     1  UNL1       -0.0325
     30 C          69.0657   92.4826   14.4851 C.2     1  UNL1        0.3799
     31 N          70.1138   92.2272   13.4428 N.2     1  UNL1       -0.0106
     32 C          69.4683   91.4894   12.3075 C.2     1  UNL1        0.3351
     33 N          68.0213   91.2888   12.6481 N.2     1  UNL1       -0.2103
     34 C          67.7725   91.9026   13.9939 C.3     1  UNL1        0.2404
@<TRIPOS>BOND
     1    17    18    1
     2    18    19    1
     3    18    13    1
     4    13    14   am
     5    14    15    2
     6    14     7    1
     7     7     8   ar
     8     8     9   ar
     9     9    10   ar
    10    10    11   ar
    11    11     1    1
    12     1     2   am
    13     2     3    2
    14     2     4   am
    15     4    20    1
    16    20    21   ar
    17    21    22   ar
    18    22    23   ar
    19    23    26    1
    20    26    27    2
    21    27    28    1
    22    28    29    2
    23    29    30    1
    24    30    31    2
    25    31    32    1
    26    32    33    2
    27    33    34    1
    28    23    24   ar
    29    24    25   ar
    30    11    12   ar
    31    12     7   ar
    32    25    20   ar
    33    34    26    1
    34    34    30    1
    35    13    16    1
    36     1     5    1
    37     4     6    1
@<TRIPOS>MOLECULE
*****
 34 37 0 0 0
SMALL
GASTEIGER

@<TRIPOS>ATOM
      1 N          59.6324   87.8828    8.7433 N.am    1  UNL1       -0.2681
      2 C          59.8807   88.9708    7.7411 C.2     1  UNL1        0.3082
      3 O          61.1365   89.7877    7.8166 O.2     1  UNL1       -0.2522
      4 N          58.8733   89.2419    6.6632 N.am    1  UNL1       -0.2681
      5 H          58.8082   87.3466    8.6937 H       1  UNL1        0.1564
      6 H          58.0491   88.7057    6.6136 H       1  UNL1        0.1564
      7 C          62.1647   85.9484   11.1089 C.ar    1  UNL1        0.0546
      8 C          62.6546   87.0696   11.9768 C.ar    1  UNL1        0.0046
      9 C          62.1370   88.4618   11.7668 C.ar    1  UNL1        0.0014
     10 C          61.1297   88.7328   10.6890 C.ar    1  UNL1        0.0147
     11 C          60.6398   87.6117    9.8211 C.ar    1  UNL1        0.0517
     12 C          61.1573   86.2196   10.0310 C.ar    1  UNL1        0.0192
     13 N          62.4612   83.8639   12.6310 N.am    1  UNL1       -0.3025
     14 C          62.6822   84.5564   11.3188 C.2     1  UNL1        0.2458
     15 O          63.4208   83.8566   10.2167 O.2     1  UNL1       -0.2701
     16 H          61.9764   84.3232   13.3544 H       1  UNL1        0.1497
     17 C          64.4439   82.1862   12.6943 C.3     1  UNL1        0.0213
     18 C          62.9787   82.4718   12.8410 C.3     1  UNL1        0.0720
     19 C          62.0309   81.3653   13.1977 C.3     1  UNL1        0.0213
     20 C          59.1216   90.3298    5.6610 C.ar    1  UNL1        0.0516
     21 C          60.5073   90.5646    5.1365 C.ar    1  UNL1        0.0147
     22 C          60.7556   91.6525    4.1343 C.ar    1  UNL1        0.0010
     23 C          59.6183   92.5059    3.6564 C.ar    1  UNL1       -0.0014
     24 C          58.2327   92.2713    4.1808 C.ar    1  UNL1        0.0010
     25 C          57.9844   91.1832    5.1831 C.ar    1  UNL1        0.0147
     26 C          59.8666   93.5939    2.6542 C.2     1  UNL1        0.0158
     27 C          60.1901   94.9828    3.1195 C.2     1  UNL1        0.0487
     28 C          60.4385   96.0707    2.1173 C.2     1  UNL1        0.2355
     29 N          60.3634   95.7700    0.6496 N.2     1  UNL1       -0.0325
     30 C          60.0399   94.3812    0.1843 C.2     1  UNL1        0.3799
     31 N          59.8978   93.7897   -1.1868 N.2     1  UNL1       -0.0106
     32 C          59.5616   92.3361   -1.0319 C.2     1  UNL1        0.3351
     33 N          59.4959   92.0292    0.4349 N.2     1  UNL1       -0.2103
     34 C          59.7915   93.2932    1.1866 C.3     1  UNL1        0.2404
@<TRIPOS>BOND
     1    17    18    1
     2    18    19    1
     3    18    13    1
     4    13    14   am
     5    14    15    2
     6    14     7    1
     7     7     8   ar
     8     8     9   ar
     9     9    10   ar
    10    10    11   ar
    11    11     1    1
    12     1     2   am
    13     2     3    2
    14     2     4   am
    15     4    20    1
    16    20    21   ar
    17    21    22   ar
    18    22    23   ar
    19    23    26    1
    20    26    27    2
    21    27    28    1
    22    28    29    2
    23    29    30    1
    24    30    31    2
    25    31    32    1
    26    32    33    2
    27    33    34    1
    28    23    24   ar
    29    24    25   ar
    30    11    12   ar
    31    12     7   ar
    32    25    20   ar
    33    34    26    1
    34    34    30    1
    35    13    16    1
    36     1     5    1
    37     4     6    1
@<TRIPOS>MOLECULE
*****
 34 37 0 0 0
SMALL
GASTEIGER

@<TRIPOS>ATOM
      1 N          58.9561   91.0221    6.1059 N.am    1  UNL1       -0.2681
      2 C          59.7921   89.9123    6.6709 C.2     1  UNL1        0.3082
      3 O          60.9747   89.3991    5.9040 O.2     1  UNL1       -0.2522
      4 N          59.4456   89.3156    8.0028 N.am    1  UNL1       -0.2681
      5 H          58.1800   91.3589    6.6093 H       1  UNL1        0.1564
      6 H          58.6695   89.6524    8.5062 H       1  UNL1        0.1564
      7 C          61.0841   92.4600    3.0803 C.ar    1  UNL1        0.0546
      8 C          59.9954   92.8122    2.1102 C.ar    1  UNL1        0.0046
      9 C          58.5604   92.5677    2.4721 C.ar    1  UNL1        0.0014
     10 C          58.2140   91.9710    3.8040 C.ar    1  UNL1        0.0147
     11 C          59.3026   91.6188    4.7740 C.ar    1  UNL1        0.0517
     12 C          60.7376   91.8633    4.4122 C.ar    1  UNL1        0.0192
     13 N          62.8911   93.9003    1.8928 N.am    1  UNL1       -0.3025
     14 C          62.5190   92.7045    2.7184 C.2     1  UNL1        0.2458
     15 O          63.5820   91.7532    3.1821 O.2     1  UNL1       -0.2701
     16 H          62.1935   94.5247    1.5885 H       1  UNL1        0.1497
     17 C          65.0763   95.2793    2.1635 C.3     1  UNL1        0.0213
     18 C          64.3261   94.1449    1.5309 C.3     1  UNL1        0.0720
     19 C          65.0109   93.2549    0.5365 C.3     1  UNL1        0.0213
     20 C          60.2816   88.2058    8.5678 C.ar    1  UNL1        0.0516
     21 C          60.0864   86.7991    8.0847 C.ar    1  UNL1        0.0147
     22 C          60.9224   85.6893    8.6497 C.ar    1  UNL1        0.0010
     23 C          61.9538   85.9861    9.6978 C.ar    1  UNL1       -0.0014
     24 C          62.1490   87.3926   10.1808 C.ar    1  UNL1        0.0010
     25 C          61.3129   88.5025    9.6158 C.ar    1  UNL1        0.0147
     26 C          62.7898   84.8762   10.2627 C.2     1  UNL1        0.0158
     27 C          63.5823   83.9926    9.3455 C.2     1  UNL1        0.0487
     28 C          64.4183   82.8827    9.9104 C.2     1  UNL1        0.2355
     29 N          64.4619   82.6564   11.3927 N.2     1  UNL1       -0.0325
     30 C          63.6695   83.5400   12.3099 C.2     1  UNL1        0.3799
     31 N          63.5167   83.5579   13.8020 N.2     1  UNL1       -0.0106
     32 C          62.5862   84.6788   14.1592 C.2     1  UNL1        0.3351
     33 N          62.1639   85.3537   12.8879 N.2     1  UNL1       -0.2103
     34 C          62.8334   84.6499   11.7449 C.3     1  UNL1        0.2404
@<TRIPOS>BOND
     1    17    18    1
     2    18    19    1
     3    18    13    1
     4    13    14   am
     5    14    15    2
     6    14     7    1
     7     7     8   ar
     8     8     9   ar
     9     9    10   ar
    10    10    11   ar
    11    11     1    1
    12     1     2   am
    13     2     3    2
    14     2     4   am
    15     4    20    1
    16    20    21   ar
    17    21    22   ar
    18    22    23   ar
    19    23    26    1
    20    26    27    2
    21    27    28    1
    22    28    29    2
    23    29    30    1
    24    30    31    2
    25    31    32    1
    26    32    33    2
    27    33    34    1
    28    23    24   ar
    29    24    25   ar
    30    11    12   ar
    31    12     7   ar
    32    25    20   ar
    33    34    26    1
    34    34    30    1
    35    13    16    1
    36     1     5    1
    37     4     6    1
