@<TRIPOS>MOLECULE
*****
 39 43 0 0 0
SMALL
GASTEIGER

@<TRIPOS>ATOM
      1 C          61.9802   88.2632   11.0268 C.3     1  UNL1        0.0807
      2 C          63.6304   89.1298   12.8369 C.ar    1  UNL1        0.1351
      3 C          64.6079   90.1614   13.3164 C.ar    1  UNL1        0.0366
      4 C          64.9130   91.3584   12.4652 C.ar    1  UNL1        0.0030
      5 C          65.8906   92.3901   12.9447 C.ar    1  UNL1        0.0006
      6 C          66.1956   93.5869   12.0936 C.ar    1  UNL1        0.0067
      7 C          65.5231   93.7521   10.7631 C.ar    1  UNL1        0.0346
      8 BR         65.8282   94.9491    9.9120 Br      1  UNL1       -0.0490
      9 C          64.5455   92.7205   10.2836 C.ar    1  UNL1        0.0067
     10 C          64.2405   91.5236   11.1347 C.ar    1  UNL1        0.0004
     11 C          63.2629   90.4918   10.6552 C.ar    1  UNL1       -0.0009
     12 C          62.9578   89.2950   11.5063 C.ar    1  UNL1        0.0183
     13 C          64.3309   87.4495   14.6905 C.3     1  UNL1        0.2525
     14 O          63.3253   87.9328   13.6880 O.3     1  UNL1       -0.4717
     15 C          62.4758   87.0032   10.3813 C.ar    1  UNL1        0.0375
     16 C          62.9470   87.0252    8.9574 C.ar    1  UNL1        0.0023
     17 C          63.4426   85.7652    8.3119 C.ar    1  UNL1        0.0206
     18 C          63.4671   84.4832    9.0902 C.ar    1  UNL1        0.1020
     19 N          62.9959   84.4611   10.5142 N.ar    1  UNL1       -0.2104
     20 C          62.5003   85.7211   11.1597 C.ar    1  UNL1        0.2211
     21 O          62.0291   85.6992   12.5836 O.3     1  UNL1       -0.4563
     22 C          62.4185   84.5652   13.4851 C.3     1  UNL1        0.2542
     23 C          60.5070   88.4915   11.1929 C.3     1  UNL1        0.1187
     24 O          60.7538   89.1038   12.5398 O.3     1  UNL1       -0.3819
     25 H          60.5990   88.4401   13.2300 H       1  UNL1        0.2107
     26 C          60.2603   87.8791    9.8461 C.ar    1  UNL1        0.0369
     27 C          60.2481   86.3871    9.6914 C.ar    1  UNL1        0.0010
     28 C          60.0013   85.7748    8.3445 C.ar    1  UNL1       -0.0000
     29 C          59.7668   86.6543    7.1523 C.ar    1  UNL1        0.0031
     30 C          59.7790   88.1462    7.3070 C.ar    1  UNL1        0.0375
     31 C          59.5807   89.2592    6.3211 C.ar    1  UNL1        0.0437
     32 C          59.7049   90.5594    7.0586 C.ar    1  UNL1        0.1796
     33 O          59.9799   90.2501    8.5004 O.2     1  UNL1       -0.4507
     34 C          60.0258   88.7587    8.6539 C.ar    1  UNL1        0.1436
     35 C          59.0339   88.7198   11.3590 C.3     1  UNL1        0.0492
     36 C          58.5186   89.4438   12.5675 C.3     1  UNL1        0.0750
     37 N          57.9791   88.6686   13.7328 N.3     1  UNL1       -0.2702
     38 C          58.7763   88.5664   14.9993 C.3     1  UNL1        0.0897
     39 C          56.6423   87.9957   13.6317 C.3     1  UNL1        0.0897
@<TRIPOS>BOND
     1    13    14    1
     2    14     2    1
     3     2     3   ar
     4     3     4   ar
     5     4     5   ar
     6     5     6   ar
     7     6     7   ar
     8     7     8    1
     9     7     9   ar
    10     9    10   ar
    11    10    11   ar
    12    11    12   ar
    13     1    12    1
    14     1    15    1
    15    15    16   ar
    16    16    17   ar
    17    17    18   ar
    18    18    19   ar
    19    19    20   ar
    20    20    21    1
    21    21    22    1
    22     1    23    1
    23    23    24    1
    24    23    35    1
    25    35    36    1
    26    36    37    1
    27    37    38    1
    28    37    39    1
    29    23    26    1
    30    26    27   ar
    31    27    28   ar
    32    28    29   ar
    33    29    30   ar
    34    30    31   ar
    35    31    32   ar
    36    32    33   ar
    37    33    34   ar
    38    12     2   ar
    39    20    15   ar
    40    34    26   ar
    41    10     4   ar
    42    34    30   ar
    43    24    25    1
@<TRIPOS>MOLECULE
*****
 39 43 0 0 0
SMALL
GASTEIGER

@<TRIPOS>ATOM
      1 C          63.1109   88.7560   12.0641 C.3     1  UNL1        0.0807
      2 C          60.7207   88.5803   11.0612 C.ar    1  UNL1        0.1351
      3 C          59.7796   88.0182   10.0373 C.ar    1  UNL1        0.0366
      4 C          60.2877   87.0695    8.9923 C.ar    1  UNL1        0.0030
      5 C          59.3467   86.5074    7.9684 C.ar    1  UNL1        0.0006
      6 C          59.8549   85.5588    6.9235 C.ar    1  UNL1        0.0067
      7 C          61.3041   85.1723    6.9025 C.ar    1  UNL1        0.0346
      8 BR         61.8122   84.2237    5.8575 Br      1  UNL1       -0.0490
      9 C          62.2451   85.7345    7.9263 C.ar    1  UNL1        0.0067
     10 C          61.7370   86.6830    8.9712 C.ar    1  UNL1        0.0004
     11 C          62.6780   87.2452    9.9952 C.ar    1  UNL1       -0.0009
     12 C          62.1699   88.1938   11.0401 C.ar    1  UNL1        0.0183
     13 C          59.2923   90.6485   11.7189 C.3     1  UNL1        0.2525
     14 O          60.2125   89.5289   12.1062 O.3     1  UNL1       -0.4717
     15 C          63.6632   87.8704   13.1414 C.ar    1  UNL1        0.0375
     16 C          64.6879   88.4034   14.0985 C.ar    1  UNL1        0.0023
     17 C          65.2401   87.5178   15.1758 C.ar    1  UNL1        0.0206
     18 C          64.7677   86.0992   15.2962 C.ar    1  UNL1        0.1020
     19 N          63.7430   85.5662   14.3391 N.ar    1  UNL1       -0.2104
     20 C          63.1907   86.4518   13.2618 C.ar    1  UNL1        0.2211
     21 O          62.1660   85.9189   12.3047 O.3     1  UNL1       -0.4563
     22 C          62.2611   84.5042   11.8151 C.3     1  UNL1        0.2542
     23 C          63.4997   90.2038   12.0106 C.3     1  UNL1        0.1187
     24 O          63.6181   90.1169   10.5179 O.3     1  UNL1       -0.3819
     25 H          64.5484   89.9901   10.2742 H       1  UNL1        0.2107
     26 C          63.3813   90.2907   13.5034 C.ar    1  UNL1        0.0369
     27 C          62.2720   89.5703   14.2110 C.ar    1  UNL1        0.0010
     28 C          62.1535   89.6572   15.7037 C.ar    1  UNL1       -0.0000
     29 C          63.1444   90.4645   16.4890 C.ar    1  UNL1        0.0031
     30 C          64.2536   91.1848   15.7815 C.ar    1  UNL1        0.0375
     31 C          65.3701   92.0505   16.2854 C.ar    1  UNL1        0.0437
     32 C          66.1787   92.4986   15.1041 C.ar    1  UNL1        0.1796
     33 O          65.5618   91.9099   13.8700 O.2     1  UNL1       -0.4507
     34 C          64.3721   91.0979   14.2886 C.ar    1  UNL1        0.1436
     35 C          63.8885   91.6515   11.9572 C.3     1  UNL1        0.0492
     36 C          64.4686   92.2264   10.6990 C.3     1  UNL1        0.0750
     37 N          65.7401   93.0202   10.7538 N.3     1  UNL1       -0.2702
     38 C          65.6949   94.4886   11.0568 C.3     1  UNL1        0.0897
     39 C          67.0567   92.3458   10.5056 C.3     1  UNL1        0.0897
@<TRIPOS>BOND
     1    13    14    1
     2    14     2    1
     3     2     3   ar
     4     3     4   ar
     5     4     5   ar
     6     5     6   ar
     7     6     7   ar
     8     7     8    1
     9     7     9   ar
    10     9    10   ar
    11    10    11   ar
    12    11    12   ar
    13     1    12    1
    14     1    15    1
    15    15    16   ar
    16    16    17   ar
    17    17    18   ar
    18    18    19   ar
    19    19    20   ar
    20    20    21    1
    21    21    22    1
    22     1    23    1
    23    23    24    1
    24    23    35    1
    25    35    36    1
    26    36    37    1
    27    37    38    1
    28    37    39    1
    29    23    26    1
    30    26    27   ar
    31    27    28   ar
    32    28    29   ar
    33    29    30   ar
    34    30    31   ar
    35    31    32   ar
    36    32    33   ar
    37    33    34   ar
    38    12     2   ar
    39    20    15   ar
    40    34    26   ar
    41    10     4   ar
    42    34    30   ar
    43    24    25    1
@<TRIPOS>MOLECULE
*****
 39 43 0 0 0
SMALL
GASTEIGER

@<TRIPOS>ATOM
      1 C          62.4842   88.5458   12.2626 C.3     1  UNL1        0.0807
      2 C          62.5014   86.8332   10.3089 C.ar    1  UNL1        0.1351
      3 C          62.6385   85.4219    9.8198 C.ar    1  UNL1        0.0366
      4 C          62.8953   84.3116   10.7952 C.ar    1  UNL1        0.0030
      5 C          63.0323   82.9003   10.3060 C.ar    1  UNL1        0.0006
      6 C          63.2891   81.7901   11.2814 C.ar    1  UNL1        0.0067
      7 C          63.4089   82.0912   12.7460 C.ar    1  UNL1        0.0346
      8 BR         63.6657   80.9809   13.7214 Br      1  UNL1       -0.0490
      9 C          63.2719   83.5025   13.2352 C.ar    1  UNL1        0.0067
     10 C          63.0151   84.6127   12.2597 C.ar    1  UNL1        0.0004
     11 C          62.8781   86.0241   12.7489 C.ar    1  UNL1       -0.0009
     12 C          62.6212   87.1343   11.7735 C.ar    1  UNL1        0.0183
     13 C          60.8557   88.1854    8.8213 C.3     1  UNL1        0.2525
     14 O          62.2446   87.9435    9.3335 O.3     1  UNL1       -0.4717
     15 C          61.1659   89.2529   12.1529 C.ar    1  UNL1        0.0375
     16 C          59.9111   88.5770   12.6206 C.ar    1  UNL1        0.0023
     17 C          58.5928   89.2841   12.5108 C.ar    1  UNL1        0.0206
     18 C          58.5292   90.6671   11.9335 C.ar    1  UNL1        0.1020
     19 N          59.7841   91.3430   11.4658 N.ar    1  UNL1       -0.2104
     20 C          61.1024   90.6359   11.5755 C.ar    1  UNL1        0.2211
     21 O          62.3572   91.3117   11.1078 O.3     1  UNL1       -0.4563
     22 C          62.7062   91.3187    9.6490 C.3     1  UNL1        0.2542
     23 C          63.6655   89.2500   12.8615 C.3     1  UNL1        0.1187
     24 O          64.0692   89.7310   11.4993 O.3     1  UNL1       -0.3819
     25 H          64.7587   89.1495   11.1423 H       1  UNL1        0.2107
     26 C          63.2617   88.7690   14.2236 C.ar    1  UNL1        0.0369
     27 C          62.2325   89.5244   15.0112 C.ar    1  UNL1        0.0010
     28 C          61.8287   89.0434   16.3734 C.ar    1  UNL1       -0.0000
     29 C          62.4541   87.8070   16.9480 C.ar    1  UNL1        0.0031
     30 C          63.4832   87.0516   16.1605 C.ar    1  UNL1        0.0375
     31 C          64.2670   85.8093   16.4646 C.ar    1  UNL1        0.0437
     32 C          65.1551   85.5225   15.2903 C.ar    1  UNL1        0.1796
     33 O          64.9203   86.5876   14.2605 O.2     1  UNL1       -0.4507
     34 C          63.8871   87.5326   14.7983 C.ar    1  UNL1        0.1436
     35 C          64.8467   89.9542   13.4603 C.3     1  UNL1        0.0492
     36 C          64.8929   91.4534   13.4849 C.3     1  UNL1        0.0750
     37 N          65.9626   92.1833   12.7281 N.3     1  UNL1       -0.2702
     38 C          65.6086   92.9728   11.5028 C.3     1  UNL1        0.0897
     39 C          67.3864   92.1237   13.1965 C.3     1  UNL1        0.0897
@<TRIPOS>BOND
     1    13    14    1
     2    14     2    1
     3     2     3   ar
     4     3     4   ar
     5     4     5   ar
     6     5     6   ar
     7     6     7   ar
     8     7     8    1
     9     7     9   ar
    10     9    10   ar
    11    10    11   ar
    12    11    12   ar
    13     1    12    1
    14     1    15    1
    15    15    16   ar
    16    16    17   ar
    17    17    18   ar
    18    18    19   ar
    19    19    20   ar
    20    20    21    1
    21    21    22    1
    22     1    23    1
    23    23    24    1
    24    23    35    1
    25    35    36    1
    26    36    37    1
    27    37    38    1
    28    37    39    1
    29    23    26    1
    30    26    27   ar
    31    27    28   ar
    32    28    29   ar
    33    29    30   ar
    34    30    31   ar
    35    31    32   ar
    36    32    33   ar
    37    33    34   ar
    38    12     2   ar
    39    20    15   ar
    40    34    26   ar
    41    10     4   ar
    42    34    30   ar
    43    24    25    1
@<TRIPOS>MOLECULE
*****
 39 43 0 0 0
SMALL
GASTEIGER

@<TRIPOS>ATOM
      1 C          62.9556   89.7320   12.7508 C.3     1  UNL1        0.0807
      2 C          64.2637   91.6889   13.8506 C.ar    1  UNL1        0.1351
      3 C          65.1806   92.8697   13.7279 C.ar    1  UNL1        0.0366
      4 C          65.7062   93.2745   12.3825 C.ar    1  UNL1        0.0030
      5 C          66.6230   94.4553   12.2598 C.ar    1  UNL1        0.0006
      6 C          67.1486   94.8601   10.9145 C.ar    1  UNL1        0.0067
      7 C          66.7573   94.0841    9.6920 C.ar    1  UNL1        0.0346
      8 BR         67.2829   94.4890    8.3466 Br      1  UNL1       -0.0490
      9 C          65.8405   92.9033    9.8147 C.ar    1  UNL1        0.0067
     10 C          65.3149   92.4985   11.1600 C.ar    1  UNL1        0.0004
     11 C          64.3980   91.3177   11.2827 C.ar    1  UNL1       -0.0009
     12 C          63.8725   90.9129   12.6280 C.ar    1  UNL1        0.0183
     13 C          64.3316   91.8731   16.4413 C.3     1  UNL1        0.2525
     14 O          63.7381   91.2840   15.1960 O.3     1  UNL1       -0.4717
     15 C          61.5092   89.8634   12.3758 C.ar    1  UNL1        0.0375
     16 C          61.1298   90.2992   10.9916 C.ar    1  UNL1        0.0023
     17 C          59.6834   90.4306   10.6166 C.ar    1  UNL1        0.0206
     18 C          58.6163   90.1262   11.6259 C.ar    1  UNL1        0.1020
     19 N          58.9957   89.6905   13.0102 N.ar    1  UNL1       -0.2104
     20 C          60.4421   89.5591   13.3852 C.ar    1  UNL1        0.2211
     21 O          60.8215   89.1234   14.7694 O.3     1  UNL1       -0.4563
     22 C          59.7691   88.9978   15.8311 C.3     1  UNL1        0.2542
     23 C          63.4852   88.4199   13.2485 C.3     1  UNL1        0.1187
     24 O          63.9001   89.0744   14.5327 O.3     1  UNL1       -0.3819
     25 H          64.8440   89.2947   14.4931 H       1  UNL1        0.2107
     26 C          63.0702   87.7653   11.9642 C.ar    1  UNL1        0.0369
     27 C          62.9067   88.5889   10.7212 C.ar    1  UNL1        0.0010
     28 C          62.4917   87.9344    9.4370 C.ar    1  UNL1       -0.0000
     29 C          62.2403   86.4562    9.3957 C.ar    1  UNL1        0.0031
     30 C          62.4038   85.6325   10.6386 C.ar    1  UNL1        0.0375
     31 C          62.2273   84.1664   10.9015 C.ar    1  UNL1        0.0437
     32 C          62.5332   83.9148   12.3483 C.ar    1  UNL1        0.1796
     33 O          62.8987   85.2255   12.9795 O.2     1  UNL1       -0.4507
     34 C          62.8188   86.2871   11.9229 C.ar    1  UNL1        0.1436
     35 C          64.0147   87.1077   13.7462 C.3     1  UNL1        0.0492
     36 C          64.4195   86.9586   15.1829 C.3     1  UNL1        0.0750
     37 N          63.4232   86.4799   16.1969 N.3     1  UNL1       -0.2702
     38 C          62.9217   85.0671   16.1465 C.3     1  UNL1        0.0897
     39 C          62.9285   87.4139   17.2613 C.3     1  UNL1        0.0897
@<TRIPOS>BOND
     1    13    14    1
     2    14     2    1
     3     2     3   ar
     4     3     4   ar
     5     4     5   ar
     6     5     6   ar
     7     6     7   ar
     8     7     8    1
     9     7     9   ar
    10     9    10   ar
    11    10    11   ar
    12    11    12   ar
    13     1    12    1
    14     1    15    1
    15    15    16   ar
    16    16    17   ar
    17    17    18   ar
    18    18    19   ar
    19    19    20   ar
    20    20    21    1
    21    21    22    1
    22     1    23    1
    23    23    24    1
    24    23    35    1
    25    35    36    1
    26    36    37    1
    27    37    38    1
    28    37    39    1
    29    23    26    1
    30    26    27   ar
    31    27    28   ar
    32    28    29   ar
    33    29    30   ar
    34    30    31   ar
    35    31    32   ar
    36    32    33   ar
    37    33    34   ar
    38    12     2   ar
    39    20    15   ar
    40    34    26   ar
    41    10     4   ar
    42    34    30   ar
    43    24    25    1
@<TRIPOS>MOLECULE
*****
 39 43 0 0 0
SMALL
GASTEIGER

@<TRIPOS>ATOM
      1 C          63.1067   87.7143   12.9525 C.3     1  UNL1        0.0807
      2 C          63.5172   89.8914   11.5953 C.ar    1  UNL1        0.1351
      3 C          64.1615   91.2398   11.4664 C.ar    1  UNL1        0.0366
      4 C          65.0396   91.7596   12.5659 C.ar    1  UNL1        0.0030
      5 C          65.6839   93.1081   12.4370 C.ar    1  UNL1        0.0006
      6 C          66.5619   93.6278   13.5364 C.ar    1  UNL1        0.0067
      7 C          66.7958   92.7992   14.7647 C.ar    1  UNL1        0.0346
      8 BR         67.6739   93.3191   15.8641 Br      1  UNL1       -0.0490
      9 C          66.1515   91.4508   14.8936 C.ar    1  UNL1        0.0067
     10 C          65.2734   90.9310   13.7942 C.ar    1  UNL1        0.0004
     11 C          64.6291   89.5825   13.9230 C.ar    1  UNL1       -0.0009
     12 C          63.7510   89.0628   12.8236 C.ar    1  UNL1        0.0183
     13 C          62.0632   90.3183    9.4849 C.3     1  UNL1        0.2525
     14 O          62.6390   89.3715   10.4959 O.3     1  UNL1       -0.4717
     15 C          63.7502   86.6530   13.7948 C.ar    1  UNL1        0.0375
     16 C          64.6820   85.6594   13.1666 C.ar    1  UNL1        0.0023
     17 C          65.3255   84.5981   14.0089 C.ar    1  UNL1        0.0206
     18 C          65.0374   84.5304   15.4794 C.ar    1  UNL1        0.1020
     19 N          64.1056   85.5240   16.1076 N.ar    1  UNL1       -0.2104
     20 C          63.4620   86.5853   15.2653 C.ar    1  UNL1        0.2211
     21 O          62.5303   87.5789   15.8935 O.3     1  UNL1       -0.4563
     22 C          63.0293   88.5008   16.9664 C.3     1  UNL1        0.2542
     23 C          61.8188   87.4272   12.2390 C.3     1  UNL1        0.1187
     24 O          61.2450   88.7123   12.7577 O.3     1  UNL1       -0.3819
     25 H          60.7028   88.5313   13.5414 H       1  UNL1        0.2107
     26 C          62.3927   86.1420   11.7204 C.ar    1  UNL1        0.0369
     27 C          63.0815   86.1119   10.3882 C.ar    1  UNL1        0.0010
     28 C          63.6554   84.8267    9.8695 C.ar    1  UNL1       -0.0000
     29 C          63.5405   83.5717   10.6830 C.ar    1  UNL1        0.0031
     30 C          62.8517   83.6018   12.0151 C.ar    1  UNL1        0.0375
     31 C          62.5877   82.5322   13.0330 C.ar    1  UNL1        0.0437
     32 C          61.8507   83.1562   14.1808 C.ar    1  UNL1        0.1796
     33 O          61.6592   84.6116   13.8723 O.2     1  UNL1       -0.4507
     34 C          62.2778   84.8870   12.5338 C.ar    1  UNL1        0.1436
     35 C          60.5310   87.1400   11.5256 C.3     1  UNL1        0.0492
     36 C          60.0221   88.0922   10.4842 C.3     1  UNL1        0.0750
     37 N          59.9047   87.6490    9.0560 N.3     1  UNL1       -0.2702
     38 C          59.4596   88.6205    8.0034 C.3     1  UNL1        0.0897
     39 C          60.2326   86.2342    8.6804 C.3     1  UNL1        0.0897
@<TRIPOS>BOND
     1    13    14    1
     2    14     2    1
     3     2     3   ar
     4     3     4   ar
     5     4     5   ar
     6     5     6   ar
     7     6     7   ar
     8     7     8    1
     9     7     9   ar
    10     9    10   ar
    11    10    11   ar
    12    11    12   ar
    13     1    12    1
    14     1    15    1
    15    15    16   ar
    16    16    17   ar
    17    17    18   ar
    18    18    19   ar
    19    19    20   ar
    20    20    21    1
    21    21    22    1
    22     1    23    1
    23    23    24    1
    24    23    35    1
    25    35    36    1
    26    36    37    1
    27    37    38    1
    28    37    39    1
    29    23    26    1
    30    26    27   ar
    31    27    28   ar
    32    28    29   ar
    33    29    30   ar
    34    30    31   ar
    35    31    32   ar
    36    32    33   ar
    37    33    34   ar
    38    12     2   ar
    39    20    15   ar
    40    34    26   ar
    41    10     4   ar
    42    34    30   ar
    43    24    25    1
@<TRIPOS>MOLECULE
*****
 39 43 0 0 0
SMALL
GASTEIGER

@<TRIPOS>ATOM
      1 C          62.9103   86.0224   12.8705 C.3     1  UNL1        0.0807
      2 C          63.9878   87.7532   14.4809 C.ar    1  UNL1        0.1351
      3 C          64.5412   89.1244   14.7327 C.ar    1  UNL1        0.0366
      4 C          64.5704   90.1363   13.6257 C.ar    1  UNL1        0.0030
      5 C          65.1237   91.5076   13.8775 C.ar    1  UNL1        0.0006
      6 C          65.1529   92.5194   12.7705 C.ar    1  UNL1        0.0067
      7 C          64.6287   92.1600   11.4119 C.ar    1  UNL1        0.0346
      8 BR         64.6579   93.1719   10.3049 Br      1  UNL1       -0.0490
      9 C          64.0754   90.7887   11.1601 C.ar    1  UNL1        0.0067
     10 C          64.0462   89.7769   12.2670 C.ar    1  UNL1        0.0004
     11 C          63.4928   88.4056   12.0153 C.ar    1  UNL1       -0.0009
     12 C          63.4636   87.3938   13.1222 C.ar    1  UNL1        0.0183
     13 C          63.4078   87.1157   16.9319 C.3     1  UNL1        0.2525
     14 O          63.9586   86.7413   15.5879 O.3     1  UNL1       -0.4717
     15 C          63.3451   84.8695   13.7259 C.ar    1  UNL1        0.0375
     16 C          64.6926   84.2453   13.5148 C.ar    1  UNL1        0.0023
     17 C          65.1275   83.0925   14.3702 C.ar    1  UNL1        0.0206
     18 C          64.2148   82.5638   15.4368 C.ar    1  UNL1        0.1020
     19 N          62.8673   83.1880   15.6480 N.ar    1  UNL1       -0.2104
     20 C          62.4324   84.3409   14.7925 C.ar    1  UNL1        0.2211
     21 O          61.0849   84.9651   15.0036 O.3     1  UNL1       -0.4563
     22 C          60.8294   85.8042   16.2205 C.3     1  UNL1        0.2542
     23 C          61.9221   85.8040   11.7634 C.3     1  UNL1        0.1187
     24 O          61.0973   86.9482   12.2738 O.3     1  UNL1       -0.3819
     25 H          60.3706   86.6057   12.8174 H       1  UNL1        0.2107
     26 C          62.7469   84.6599   11.2529 C.ar    1  UNL1        0.0369
     27 C          63.7998   84.9001   10.2119 C.ar    1  UNL1        0.0010
     28 C          64.6246   83.7560    9.7014 C.ar    1  UNL1       -0.0000
     29 C          64.3965   82.3716   10.2319 C.ar    1  UNL1        0.0031
     30 C          63.3436   82.1313   11.2729 C.ar    1  UNL1        0.0375
     31 C          62.8951   80.8857   11.9780 C.ar    1  UNL1        0.0437
     32 C          61.7930   81.2600   12.9243 C.ar    1  UNL1        0.1796
     33 O          61.5605   82.7370   12.8040 O.2     1  UNL1       -0.4507
     34 C          62.5187   83.2755   11.7834 C.ar    1  UNL1        0.1436
     35 C          60.9339   85.5856   10.6563 C.3     1  UNL1        0.0492
     36 C          60.6344   86.6924    9.6890 C.3     1  UNL1        0.0750
     37 N          60.2750   86.3705    8.2688 N.3     1  UNL1       -0.2702
     38 C          58.9859   86.8728    7.6892 C.3     1  UNL1        0.0897
     39 C          61.2046   85.5463    7.4282 C.3     1  UNL1        0.0897
@<TRIPOS>BOND
     1    13    14    1
     2    14     2    1
     3     2     3   ar
     4     3     4   ar
     5     4     5   ar
     6     5     6   ar
     7     6     7   ar
     8     7     8    1
     9     7     9   ar
    10     9    10   ar
    11    10    11   ar
    12    11    12   ar
    13     1    12    1
    14     1    15    1
    15    15    16   ar
    16    16    17   ar
    17    17    18   ar
    18    18    19   ar
    19    19    20   ar
    20    20    21    1
    21    21    22    1
    22     1    23    1
    23    23    24    1
    24    23    35    1
    25    35    36    1
    26    36    37    1
    27    37    38    1
    28    37    39    1
    29    23    26    1
    30    26    27   ar
    31    27    28   ar
    32    28    29   ar
    33    29    30   ar
    34    30    31   ar
    35    31    32   ar
    36    32    33   ar
    37    33    34   ar
    38    12     2   ar
    39    20    15   ar
    40    34    26   ar
    41    10     4   ar
    42    34    30   ar
    43    24    25    1
@<TRIPOS>MOLECULE
*****
 39 43 0 0 0
SMALL
GASTEIGER

@<TRIPOS>ATOM
      1 C          62.0087   88.9406   11.6912 C.3     1  UNL1        0.0807
      2 C          63.1879   90.4215   13.4707 C.ar    1  UNL1        0.1351
      3 C          64.1705   91.5001   13.8186 C.ar    1  UNL1        0.0366
      4 C          64.9565   92.1766   12.7348 C.ar    1  UNL1        0.0030
      5 C          65.9391   93.2553   13.0827 C.ar    1  UNL1        0.0006
      6 C          66.7250   93.9317   11.9990 C.ar    1  UNL1        0.0067
      7 C          66.5284   93.5296   10.5673 C.ar    1  UNL1        0.0346
      8 BR         67.3145   94.2061    9.4835 Br      1  UNL1       -0.0490
      9 C          65.5459   92.4509   10.2194 C.ar    1  UNL1        0.0067
     10 C          64.7599   91.7745   11.3032 C.ar    1  UNL1        0.0004
     11 C          63.7773   90.6958   10.9553 C.ar    1  UNL1       -0.0009
     12 C          62.9913   90.0193   12.0391 C.ar    1  UNL1        0.0183
     13 C          62.8463   89.8540   15.9830 C.3     1  UNL1        0.2525
     14 O          62.4019   89.7449   14.5545 O.3     1  UNL1       -0.4717
     15 C          60.5926   89.0309   12.1775 C.ar    1  UNL1        0.0375
     16 C          60.1781   88.2995   13.4198 C.ar    1  UNL1        0.0023
     17 C          58.7620   88.3897   13.9060 C.ar    1  UNL1        0.0206
     18 C          57.7603   89.2114   13.1501 C.ar    1  UNL1        0.1020
     19 N          58.1748   89.9428   11.9077 N.ar    1  UNL1       -0.2104
     20 C          59.5909   89.8526   11.4215 C.ar    1  UNL1        0.2211
     21 O          60.0054   90.5839   10.1792 O.3     1  UNL1       -0.4563
     22 C          59.8355   89.9375    8.8363 C.3     1  UNL1        0.2542
     23 C          62.4422   87.7717   10.8572 C.3     1  UNL1        0.1187
     24 O          61.8773   88.4339    9.6356 O.3     1  UNL1       -0.3819
     25 H          60.9953   88.0745    9.4516 H       1  UNL1        0.2107
     26 C          63.0071   87.1095   12.0787 C.ar    1  UNL1        0.0369
     27 C          63.7466   87.9235   13.0989 C.ar    1  UNL1        0.0010
     28 C          64.3116   87.2613   14.3205 C.ar    1  UNL1       -0.0000
     29 C          64.1370   85.7852   14.5220 C.ar    1  UNL1        0.0031
     30 C          63.3976   84.9712   13.5019 C.ar    1  UNL1        0.0375
     31 C          63.0703   83.5092   13.4299 C.ar    1  UNL1        0.0437
     32 C          62.3030   83.2677   12.1638 C.ar    1  UNL1        0.1796
     33 O          62.1561   84.5806   11.4533 O.2     1  UNL1       -0.4507
     34 C          62.8326   85.6334   12.2802 C.ar    1  UNL1        0.1436
     35 C          62.8757   86.6028   10.0231 C.3     1  UNL1        0.0492
     36 C          62.6757   86.6269    8.5366 C.3     1  UNL1        0.0750
     37 N          61.5450   85.8586    7.9194 N.3     1  UNL1       -0.2702
     38 C          60.1305   86.1516    8.3236 C.3     1  UNL1        0.0897
     39 C          61.8286   84.7973    6.8981 C.3     1  UNL1        0.0897
@<TRIPOS>BOND
     1    13    14    1
     2    14     2    1
     3     2     3   ar
     4     3     4   ar
     5     4     5   ar
     6     5     6   ar
     7     6     7   ar
     8     7     8    1
     9     7     9   ar
    10     9    10   ar
    11    10    11   ar
    12    11    12   ar
    13     1    12    1
    14     1    15    1
    15    15    16   ar
    16    16    17   ar
    17    17    18   ar
    18    18    19   ar
    19    19    20   ar
    20    20    21    1
    21    21    22    1
    22     1    23    1
    23    23    24    1
    24    23    35    1
    25    35    36    1
    26    36    37    1
    27    37    38    1
    28    37    39    1
    29    23    26    1
    30    26    27   ar
    31    27    28   ar
    32    28    29   ar
    33    29    30   ar
    34    30    31   ar
    35    31    32   ar
    36    32    33   ar
    37    33    34   ar
    38    12     2   ar
    39    20    15   ar
    40    34    26   ar
    41    10     4   ar
    42    34    30   ar
    43    24    25    1
@<TRIPOS>MOLECULE
*****
 39 43 0 0 0
SMALL
GASTEIGER

@<TRIPOS>ATOM
      1 C          62.6471   89.4701   12.6638 C.3     1  UNL1        0.0807
      2 C          63.6718   87.7852   14.3553 C.ar    1  UNL1        0.1351
      3 C          64.1510   86.4020   14.6826 C.ar    1  UNL1        0.0366
      4 C          64.0848   85.3203   13.6453 C.ar    1  UNL1        0.0030
      5 C          64.5640   83.9372   13.9726 C.ar    1  UNL1        0.0006
      6 C          64.4978   82.8556   12.9354 C.ar    1  UNL1        0.0067
      7 C          63.9524   83.1572   11.5710 C.ar    1  UNL1        0.0346
      8 BR         63.8863   82.0756   10.5338 Br      1  UNL1       -0.0490
      9 C          63.4732   84.5404   11.2438 C.ar    1  UNL1        0.0067
     10 C          63.5394   85.6220   12.2810 C.ar    1  UNL1        0.0004
     11 C          63.0602   87.0052   11.9538 C.ar    1  UNL1       -0.0009
     12 C          63.1264   88.0868   12.9910 C.ar    1  UNL1        0.0183
     13 C          63.1506   88.6377   16.7536 C.3     1  UNL1        0.2525
     14 O          63.7379   88.8668   15.3926 O.3     1  UNL1       -0.4717
     15 C          63.6360   90.5456   12.3239 C.ar    1  UNL1        0.0375
     16 C          64.1101   90.7089   10.9103 C.ar    1  UNL1        0.0023
     17 C          65.0990   91.7844   10.5704 C.ar    1  UNL1        0.0206
     18 C          65.6137   92.6965   11.6442 C.ar    1  UNL1        0.1020
     19 N          65.1396   92.5332   13.0579 N.ar    1  UNL1       -0.2104
     20 C          64.1507   91.4577   13.3978 C.ar    1  UNL1        0.2211
     21 O          63.6765   91.2944   14.8114 O.3     1  UNL1       -0.4563
     22 C          64.4512   91.9109   15.9384 C.3     1  UNL1        0.2542
     23 C          61.1791   89.7778   12.6765 C.3     1  UNL1        0.1187
     24 O          61.2286   89.9522   14.1654 O.3     1  UNL1       -0.3819
     25 H          60.9310   89.1358   14.5966 H       1  UNL1        0.2107
     26 C          61.1297   89.6034   11.1875 C.ar    1  UNL1        0.0369
     27 C          61.3069   90.7900   10.2871 C.ar    1  UNL1        0.0010
     28 C          61.2575   90.6157    8.7981 C.ar    1  UNL1       -0.0000
     29 C          61.0309   89.2547    8.2094 C.ar    1  UNL1        0.0031
     30 C          60.8537   88.0682    9.1098 C.ar    1  UNL1        0.0375
     31 C          60.6167   86.6155    8.8208 C.ar    1  UNL1        0.0437
     32 C          60.5197   85.8920   10.1313 C.ar    1  UNL1        0.1796
     33 O          60.6967   86.8976   11.2301 O.2     1  UNL1       -0.4507
     34 C          60.9031   88.2425   10.5988 C.ar    1  UNL1        0.1436
     35 C          59.7111   90.0855   12.6892 C.3     1  UNL1        0.0492
     36 C          58.7133   88.9912   12.4507 C.3     1  UNL1        0.0750
     37 N          57.9343   88.4230   13.5998 N.3     1  UNL1       -0.2702
     38 C          56.5003   88.0259   13.4103 C.3     1  UNL1        0.0897
     39 C          58.5894   88.2520   14.9383 C.3     1  UNL1        0.0897
@<TRIPOS>BOND
     1    13    14    1
     2    14     2    1
     3     2     3   ar
     4     3     4   ar
     5     4     5   ar
     6     5     6   ar
     7     6     7   ar
     8     7     8    1
     9     7     9   ar
    10     9    10   ar
    11    10    11   ar
    12    11    12   ar
    13     1    12    1
    14     1    15    1
    15    15    16   ar
    16    16    17   ar
    17    17    18   ar
    18    18    19   ar
    19    19    20   ar
    20    20    21    1
    21    21    22    1
    22     1    23    1
    23    23    24    1
    24    23    35    1
    25    35    36    1
    26    36    37    1
    27    37    38    1
    28    37    39    1
    29    23    26    1
    30    26    27   ar
    31    27    28   ar
    32    28    29   ar
    33    29    30   ar
    34    30    31   ar
    35    31    32   ar
    36    32    33   ar
    37    33    34   ar
    38    12     2   ar
    39    20    15   ar
    40    34    26   ar
    41    10     4   ar
    42    34    30   ar
    43    24    25    1
@<TRIPOS>MOLECULE
*****
 39 43 0 0 0
SMALL
GASTEIGER

@<TRIPOS>ATOM
      1 C          63.0950   87.8046   13.0616 C.3     1  UNL1        0.0807
      2 C          63.5970   89.9326   11.6582 C.ar    1  UNL1        0.1351
      3 C          64.2823   91.2586   11.5090 C.ar    1  UNL1        0.0366
      4 C          65.1509   91.7825   12.6141 C.ar    1  UNL1        0.0030
      5 C          65.8361   93.1084   12.4649 C.ar    1  UNL1        0.0006
      6 C          66.7046   93.6323   13.5699 C.ar    1  UNL1        0.0067
      7 C          66.8879   92.8303   14.8242 C.ar    1  UNL1        0.0346
      8 BR         67.7565   93.3542   15.9293 Br      1  UNL1       -0.0490
      9 C          66.2026   91.5043   14.9734 C.ar    1  UNL1        0.0067
     10 C          65.3341   90.9805   13.8683 C.ar    1  UNL1        0.0004
     11 C          64.6488   89.6545   14.0175 C.ar    1  UNL1       -0.0009
     12 C          63.7803   89.1306   12.9125 C.ar    1  UNL1        0.0183
     13 C          62.0953   90.3602    9.5816 C.3     1  UNL1        0.2525
     14 O          62.7285   89.4087   10.5531 O.3     1  UNL1       -0.4717
     15 C          63.7422   86.7114   13.8592 C.ar    1  UNL1        0.0375
     16 C          64.6652   85.7385   13.1873 C.ar    1  UNL1        0.0023
     17 C          65.3124   84.6454   13.9849 C.ar    1  UNL1        0.0206
     18 C          65.0365   84.5251   15.4543 C.ar    1  UNL1        0.1020
     19 N          64.1135   85.4980   16.1263 N.ar    1  UNL1       -0.2104
     20 C          63.4663   86.5911   15.3287 C.ar    1  UNL1        0.2211
     21 O          62.5433   87.5640   16.0007 O.3     1  UNL1       -0.4563
     22 C          63.0414   88.4092   17.1354 C.3     1  UNL1        0.2542
     23 C          61.7626   87.5718   12.4132 C.3     1  UNL1        0.1187
     24 O          61.3397   88.9626   12.7830 O.3     1  UNL1       -0.3819
     25 H          60.8070   88.9340   13.5931 H       1  UNL1        0.2107
     26 C          62.1855   86.1810   12.0435 C.ar    1  UNL1        0.0369
     27 C          62.1776   85.0947   13.0779 C.ar    1  UNL1        0.0010
     28 C          62.6005   83.7039   12.7082 C.ar    1  UNL1       -0.0000
     29 C          63.0313   83.3993   11.3040 C.ar    1  UNL1        0.0031
     30 C          63.0392   84.4855   10.2696 C.ar    1  UNL1        0.0375
     31 C          63.4107   84.4850    8.8164 C.ar    1  UNL1        0.0437
     32 C          63.2175   85.8755    8.2879 C.ar    1  UNL1        0.1796
     33 O          62.7265   86.7354    9.4146 O.2     1  UNL1       -0.4507
     34 C          62.6163   85.8764   10.6393 C.ar    1  UNL1        0.1436
     35 C          60.4302   87.3391   11.7649 C.3     1  UNL1        0.0492
     36 C          59.7005   88.4799   11.1196 C.3     1  UNL1        0.0750
     37 N          58.8758   89.4120   11.9568 N.3     1  UNL1       -0.2702
     38 C          58.0240   88.8693   13.0657 C.3     1  UNL1        0.0897
     39 C          58.9028   90.8870   11.6849 C.3     1  UNL1        0.0897
@<TRIPOS>BOND
     1    13    14    1
     2    14     2    1
     3     2     3   ar
     4     3     4   ar
     5     4     5   ar
     6     5     6   ar
     7     6     7   ar
     8     7     8    1
     9     7     9   ar
    10     9    10   ar
    11    10    11   ar
    12    11    12   ar
    13     1    12    1
    14     1    15    1
    15    15    16   ar
    16    16    17   ar
    17    17    18   ar
    18    18    19   ar
    19    19    20   ar
    20    20    21    1
    21    21    22    1
    22     1    23    1
    23    23    24    1
    24    23    35    1
    25    35    36    1
    26    36    37    1
    27    37    38    1
    28    37    39    1
    29    23    26    1
    30    26    27   ar
    31    27    28   ar
    32    28    29   ar
    33    29    30   ar
    34    30    31   ar
    35    31    32   ar
    36    32    33   ar
    37    33    34   ar
    38    12     2   ar
    39    20    15   ar
    40    34    26   ar
    41    10     4   ar
    42    34    30   ar
    43    24    25    1
