@<TRIPOS>MOLECULE
*****
 45 49 0 0 0
SMALL
GASTEIGER

@<TRIPOS>ATOM
      1 C          61.0937   88.7099    9.4454 C.3     1  UNL1        0.0964
      2 C          60.3052   89.8998    8.9847 C.3     1  UNL1        0.0780
      3 N          59.3540   89.7687    7.8323 N.3     1  UNL1       -0.2970
      4 C          59.1913   88.4477    7.1406 C.3     1  UNL1        0.0689
      5 C          59.9799   87.2577    7.6013 C.3     1  UNL1        0.0220
      6 C          60.9311   87.3888    8.7537 C.3     1  UNL1        0.0337
      7 H          59.6563   90.4370    7.1235 H       1  UNL1        0.1233
      8 C          61.7197   86.1989    9.2144 C.ar    1  UNL1       -0.0217
      9 C          62.6897   85.5354    8.2823 C.ar    1  UNL1       -0.0012
     10 C          63.4782   84.3455    8.7430 C.ar    1  UNL1        0.0366
     11 C          63.2969   83.8191   10.1358 C.ar    1  UNL1        0.1387
     12 C          62.3269   84.4826   11.0680 C.ar    1  UNL1        0.0366
     13 C          61.5383   85.6726   10.6073 C.ar    1  UNL1       -0.0012
     14 O          64.0854   82.6292   10.5965 O.3     1  UNL1       -0.4714
     15 C          63.4708   81.6441   11.5462 C.3     1  UNL1        0.2525
     16 C          63.7566   81.7402   13.0156 C.3     1  UNL1        0.2525
     17 O          64.6087   82.8566   13.5423 O.3     1  UNL1       -0.4697
     18 C          64.0476   83.8184   14.5475 C.ar    1  UNL1        0.1596
     19 C          64.8657   84.9906   15.0019 C.ar    1  UNL1        0.0921
     20 CL         66.2450   85.2011   14.4513 Cl      1  UNL1       -0.0791
     21 C          64.3046   85.9523   16.0071 C.ar    1  UNL1        0.0103
     22 C          62.9252   85.7418   16.5577 C.ar    1  UNL1       -0.0200
     23 C          62.3641   86.7035   17.5628 C.3     1  UNL1        0.0311
     24 C          62.1071   84.5696   16.1032 C.ar    1  UNL1        0.0103
     25 C          62.6682   83.6079   15.0981 C.ar    1  UNL1        0.0921
     26 CL         61.8501   82.4356   14.6436 Cl      1  UNL1       -0.0791
     27 N          61.5538   89.3463   11.9219 N.am    1  UNL1       -0.2770
     28 C          62.0450   88.8410   10.5978 C.2     1  UNL1        0.2270
     29 O          63.4874   88.4668   10.4260 O.2     1  UNL1       -0.2748
     30 C          60.1114   89.7204   12.0937 C.3     1  UNL1        0.0758
     31 C          58.9841   90.6845   11.8708 C.3     1  UNL1        0.0215
     32 C          58.7406   89.4046   12.6141 C.3     1  UNL1        0.0215
     33 C          62.5050   89.4774   13.0743 C.3     1  UNL1        0.1210
     34 C          64.9166   92.3533   11.7845 C.ar    1  UNL1        0.0589
     35 C          63.8734   91.2754   11.7919 C.ar    1  UNL1        0.0130
     36 C          63.5481   90.5552   13.0669 C.ar    1  UNL1        0.0109
     37 C          64.2660   90.9129   14.3345 C.ar    1  UNL1        0.0744
     38 CL         63.9408   90.1928   15.6094 Cl      1  UNL1       -0.0809
     39 C          65.3092   91.9908   14.3270 C.ar    1  UNL1        0.1095
     40 N          65.6345   92.7110   13.0520 N.ar    1  UNL1       -0.2473
     41 C          65.2419   93.0734   10.5095 C.3     1  UNL1        0.0484
     42 C          66.0846   94.3139   10.5428 C.3     1  UNL1        0.0384
     43 C          67.2094   94.4830    9.5650 C.3     1  UNL1        0.1427
     44 C          68.7118   92.4271    9.0493 C.3     1  UNL1        0.1741
     45 O          68.4919   93.7298    9.7595 O.3     1  UNL1       -0.3511
@<TRIPOS>BOND
     1    44    45    1
     2    45    43    1
     3    43    42    1
     4    42    41    1
     5    41    34    1
     6    34    35   ar
     7    35    36   ar
     8    36    33    1
     9    33    27    1
    10    27    28   am
    11    28    29    2
    12     1    28    1
    13     1     2    1
    14     2     3    1
    15     3     4    1
    16     4     5    1
    17     5     6    1
    18     6     8    1
    19     8     9   ar
    20     9    10   ar
    21    10    11   ar
    22    11    14    1
    23    14    15    1
    24    15    16    1
    25    16    17    1
    26    17    18    1
    27    18    19   ar
    28    19    20    1
    29    19    21   ar
    30    21    22   ar
    31    22    23    1
    32    22    24   ar
    33    24    25   ar
    34    25    26    1
    35    11    12   ar
    36    12    13   ar
    37    27    30    1
    38    30    31    1
    39    31    32    1
    40    36    37   ar
    41    37    38    1
    42    37    39   ar
    43    39    40   ar
    44    40    34   ar
    45     6     1    1
    46    13     8   ar
    47    32    30    1
    48    25    18   ar
    49     3     7    1
@<TRIPOS>MOLECULE
*****
 45 49 0 0 0
SMALL
GASTEIGER

@<TRIPOS>ATOM
      1 C          65.2727   92.2020   13.4674 C.3     1  UNL1        0.0964
      2 C          66.0968   93.3599   12.9877 C.3     1  UNL1        0.0780
      3 N          67.2408   93.8614   13.8182 N.3     1  UNL1       -0.2970
      4 C          67.5607   93.2050   15.1284 C.3     1  UNL1        0.0689
      5 C          66.7366   92.0470   15.6082 C.3     1  UNL1        0.0220
      6 C          65.5926   91.5455   14.7776 C.3     1  UNL1        0.0337
      7 H          67.0505   94.8430   14.0194 H       1  UNL1        0.1233
      8 C          64.7685   90.3876   15.2573 C.ar    1  UNL1       -0.0217
      9 C          63.8002   90.5735   16.3878 C.ar    1  UNL1       -0.0012
     10 C          62.9761   89.4156   16.8674 C.ar    1  UNL1        0.0366
     11 C          63.1203   88.0718   16.2167 C.ar    1  UNL1        0.1387
     12 C          64.0886   87.8859   15.0864 C.ar    1  UNL1        0.0366
     13 C          64.9128   89.0438   14.6066 C.ar    1  UNL1       -0.0012
     14 O          62.2962   86.9139   16.6964 O.3     1  UNL1       -0.4714
     15 C          62.8915   85.5378   16.7428 C.3     1  UNL1        0.2525
     16 C          62.1946   84.3959   16.0645 C.3     1  UNL1        0.2525
     17 O          62.9611   83.1589   15.7011 O.3     1  UNL1       -0.4697
     18 C          63.2346   82.8421   14.2606 C.ar    1  UNL1        0.1596
     19 C          62.3625   81.8656   13.5287 C.ar    1  UNL1        0.0921
     20 CL         61.2168   81.2058   14.2372 Cl      1  UNL1       -0.0791
     21 C          62.6360   81.5489   12.0882 C.ar    1  UNL1        0.0103
     22 C          63.7818   82.2087   11.3797 C.ar    1  UNL1       -0.0200
     23 C          64.0553   81.8920    9.9393 C.3     1  UNL1        0.0311
     24 C          64.6539   83.1852   12.1117 C.ar    1  UNL1        0.0103
     25 C          64.3804   83.5019   13.5521 C.ar    1  UNL1        0.0921
     26 CL         65.2525   84.4785   14.2841 Cl      1  UNL1       -0.0791
     27 N          64.2028   91.7669   11.1401 N.am    1  UNL1       -0.2770
     28 C          64.1287   91.7005   12.6368 C.2     1  UNL1        0.2270
     29 O          62.9106   91.1326   13.3030 O.2     1  UNL1       -0.2748
     30 C          65.4209   92.3347   10.4740 C.3     1  UNL1        0.0758
     31 C          66.8501   92.1927   10.0413 C.3     1  UNL1        0.0215
     32 C          66.1016   93.4602    9.7530 C.3     1  UNL1        0.0215
     33 C          63.0589   91.2654   10.3096 C.3     1  UNL1        0.1210
     34 C          62.1394   87.5107   11.2080 C.ar    1  UNL1        0.0589
     35 C          62.9209   88.7106   10.7615 C.ar    1  UNL1        0.0130
     36 C          62.2773   90.0655   10.7561 C.ar    1  UNL1        0.0109
     37 C          60.8520   90.2205   11.1972 C.ar    1  UNL1        0.0744
     38 CL         60.2083   91.5753   11.1919 Cl      1  UNL1       -0.0809
     39 C          60.0704   89.0205   11.6437 C.ar    1  UNL1        0.1095
     40 N          60.7141   87.6657   11.6491 N.ar    1  UNL1       -0.2473
     41 C          62.7830   86.1558   11.2133 C.3     1  UNL1        0.0484
     42 C          62.4767   85.1757   10.1199 C.3     1  UNL1        0.0384
     43 C          62.7443   85.5398    8.6896 C.3     1  UNL1        0.1427
     44 C          60.2834   86.2577    8.2674 C.3     1  UNL1        0.1741
     45 O          61.6000   85.7633    7.7459 O.3     1  UNL1       -0.3511
@<TRIPOS>BOND
     1    44    45    1
     2    45    43    1
     3    43    42    1
     4    42    41    1
     5    41    34    1
     6    34    35   ar
     7    35    36   ar
     8    36    33    1
     9    33    27    1
    10    27    28   am
    11    28    29    2
    12     1    28    1
    13     1     2    1
    14     2     3    1
    15     3     4    1
    16     4     5    1
    17     5     6    1
    18     6     8    1
    19     8     9   ar
    20     9    10   ar
    21    10    11   ar
    22    11    14    1
    23    14    15    1
    24    15    16    1
    25    16    17    1
    26    17    18    1
    27    18    19   ar
    28    19    20    1
    29    19    21   ar
    30    21    22   ar
    31    22    23    1
    32    22    24   ar
    33    24    25   ar
    34    25    26    1
    35    11    12   ar
    36    12    13   ar
    37    27    30    1
    38    30    31    1
    39    31    32    1
    40    36    37   ar
    41    37    38    1
    42    37    39   ar
    43    39    40   ar
    44    40    34   ar
    45     6     1    1
    46    13     8   ar
    47    32    30    1
    48    25    18   ar
    49     3     7    1
@<TRIPOS>MOLECULE
*****
 45 49 0 0 0
SMALL
GASTEIGER

@<TRIPOS>ATOM
      1 C          61.2466   88.6126   10.4419 C.3     1  UNL1        0.0964
      2 C          60.5014   89.8958   10.2232 C.3     1  UNL1        0.0780
      3 N          59.7196   90.1032    8.9600 N.3     1  UNL1       -0.2970
      4 C          59.6830   89.0274    7.9154 C.3     1  UNL1        0.0689
      5 C          60.4282   87.7440    8.1341 C.3     1  UNL1        0.0220
      6 C          61.2100   87.5366    9.3973 C.3     1  UNL1        0.0337
      7 H          60.1005   90.9363    8.5114 H       1  UNL1        0.1233
      8 C          61.9552   86.2534    9.6160 C.ar    1  UNL1       -0.0217
      9 C          61.7802   85.4934   10.8974 C.ar    1  UNL1       -0.0012
     10 C          62.5254   84.2102   11.1161 C.ar    1  UNL1        0.0366
     11 C          63.4457   83.6868   10.0534 C.ar    1  UNL1        0.1387
     12 C          63.6207   84.4467    8.7721 C.ar    1  UNL1        0.0366
     13 C          62.8755   85.7300    8.5533 C.ar    1  UNL1       -0.0012
     14 O          64.1909   82.4035   10.2721 O.3     1  UNL1       -0.4714
     15 C          63.6163   81.3457   11.1670 C.3     1  UNL1        0.2525
     16 C          63.7942   81.4428   12.6532 C.3     1  UNL1        0.2525
     17 O          64.6279   82.5440   13.2383 O.3     1  UNL1       -0.4697
     18 C          64.0367   83.4709   14.2588 C.ar    1  UNL1        0.1596
     19 C          62.6616   83.2126   14.7993 C.ar    1  UNL1        0.0921
     20 CL         61.8776   82.0272   14.3194 Cl      1  UNL1       -0.0791
     21 C          62.0704   84.1395   15.8198 C.ar    1  UNL1        0.0103
     22 C          62.8544   85.3249   16.2997 C.ar    1  UNL1       -0.0200
     23 C          62.2633   86.2518   17.3201 C.3     1  UNL1        0.0311
     24 C          64.2296   85.5832   15.7591 C.ar    1  UNL1        0.0103
     25 C          64.8207   84.6563   14.7387 C.ar    1  UNL1        0.0921
     26 CL         66.1959   84.9146   14.1981 Cl      1  UNL1       -0.0791
     27 N          63.1272   89.3579   12.0721 N.am    1  UNL1       -0.2770
     28 C          62.0284   88.4052   11.7052 C.2     1  UNL1        0.2270
     29 O          61.7113   87.2449   12.6015 O.2     1  UNL1       -0.2748
     30 C          63.4443   90.5181   11.1758 C.3     1  UNL1        0.0758
     31 C          63.1460   91.3348    9.9535 C.3     1  UNL1        0.0215
     32 C          64.2917   91.7109   10.8456 C.3     1  UNL1        0.0215
     33 C          63.9090   89.1505   13.3353 C.3     1  UNL1        0.1210
     34 C          65.8678   92.4705   14.2793 C.ar    1  UNL1        0.0589
     35 C          65.3774   91.2877   13.4980 C.ar    1  UNL1        0.0130
     36 C          64.3994   90.3333   14.1166 C.ar    1  UNL1        0.0109
     37 C          63.9117   90.5619   15.5166 C.ar    1  UNL1        0.0744
     38 CL         62.9337   89.6076   16.1353 Cl      1  UNL1       -0.0809
     39 C          64.4021   91.7447   16.2979 C.ar    1  UNL1        0.1095
     40 N          65.3801   92.6990   15.6792 N.ar    1  UNL1       -0.2473
     41 C          66.8458   93.4249   13.6606 C.3     1  UNL1        0.0484
     42 C          66.3532   94.5521   12.8023 C.3     1  UNL1        0.0384
     43 C          66.4543   94.4570   11.3087 C.3     1  UNL1        0.1427
     44 C          67.9111   93.8160    9.2553 C.3     1  UNL1        0.1741
     45 O          67.5060   93.5905   10.6818 O.3     1  UNL1       -0.3511
@<TRIPOS>BOND
     1    44    45    1
     2    45    43    1
     3    43    42    1
     4    42    41    1
     5    41    34    1
     6    34    35   ar
     7    35    36   ar
     8    36    33    1
     9    33    27    1
    10    27    28   am
    11    28    29    2
    12     1    28    1
    13     1     2    1
    14     2     3    1
    15     3     4    1
    16     4     5    1
    17     5     6    1
    18     6     8    1
    19     8     9   ar
    20     9    10   ar
    21    10    11   ar
    22    11    14    1
    23    14    15    1
    24    15    16    1
    25    16    17    1
    26    17    18    1
    27    18    19   ar
    28    19    20    1
    29    19    21   ar
    30    21    22   ar
    31    22    23    1
    32    22    24   ar
    33    24    25   ar
    34    25    26    1
    35    11    12   ar
    36    12    13   ar
    37    27    30    1
    38    30    31    1
    39    31    32    1
    40    36    37   ar
    41    37    38    1
    42    37    39   ar
    43    39    40   ar
    44    40    34   ar
    45     6     1    1
    46    13     8   ar
    47    32    30    1
    48    25    18   ar
    49     3     7    1
@<TRIPOS>MOLECULE
*****
 45 49 0 0 0
SMALL
GASTEIGER

@<TRIPOS>ATOM
      1 C          63.8049   90.8745   13.6250 C.3     1  UNL1        0.0964
      2 C          64.2631   92.1652   13.0135 C.3     1  UNL1        0.0780
      3 N          65.5954   92.7424   13.3903 N.3     1  UNL1       -0.2970
      4 C          66.4695   92.0288   14.3786 C.3     1  UNL1        0.0689
      5 C          66.0113   90.7380   14.9902 C.3     1  UNL1        0.0220
      6 C          64.6790   90.1609   14.6134 C.3     1  UNL1        0.0337
      7 H          65.4166   93.6712   13.7721 H       1  UNL1        0.1233
      8 C          64.2208   88.8701   15.2249 C.ar    1  UNL1       -0.0217
      9 C          63.4067   88.8844   16.4848 C.ar    1  UNL1       -0.0012
     10 C          62.9485   87.5937   17.0963 C.ar    1  UNL1        0.0366
     11 C          63.3043   86.2886   16.4481 C.ar    1  UNL1        0.1387
     12 C          64.1183   86.2743   15.1883 C.ar    1  UNL1        0.0366
     13 C          64.5766   87.5651   14.5767 C.ar    1  UNL1       -0.0012
     14 O          62.8461   84.9979   17.0596 O.3     1  UNL1       -0.4714
     15 C          62.4651   83.8445   16.1795 C.3     1  UNL1        0.2525
     16 C          63.2479   83.5630   14.9313 C.3     1  UNL1        0.2525
     17 O          62.5777   83.6426   13.5918 O.3     1  UNL1       -0.4697
     18 C          62.7062   82.5070   12.6201 C.ar    1  UNL1        0.1596
     19 C          63.3207   82.7396   11.2717 C.ar    1  UNL1        0.0921
     20 CL         63.8069   84.1077   10.8949 Cl      1  UNL1       -0.0791
     21 C          63.4492   81.6040   10.3001 C.ar    1  UNL1        0.0103
     22 C          62.9631   80.2359   10.6769 C.ar    1  UNL1       -0.0200
     23 C          63.0915   79.1003    9.7054 C.3     1  UNL1        0.0311
     24 C          62.3485   80.0034   12.0254 C.ar    1  UNL1        0.0103
     25 C          62.2201   81.1389   12.9970 C.ar    1  UNL1        0.0921
     26 CL         61.6055   80.9064   14.3454 Cl      1  UNL1       -0.0791
     27 N          62.0386   90.2874   11.8125 N.am    1  UNL1       -0.2770
     28 C          62.4727   90.2973   13.2483 C.2     1  UNL1        0.2270
     29 O          61.5745   89.7301   14.3073 O.2     1  UNL1       -0.2748
     30 C          62.9368   90.8547   10.7535 C.3     1  UNL1        0.0758
     31 C          63.1244   91.6769    9.5131 C.3     1  UNL1        0.0215
     32 C          64.3049   91.0150   10.1598 C.3     1  UNL1        0.0215
     33 C          60.7063   89.7103   11.4357 C.3     1  UNL1        0.1210
     34 C          59.6800   88.4192    7.8261 C.ar    1  UNL1        0.0589
     35 C          59.8016   89.2982    9.0353 C.ar    1  UNL1        0.0130
     36 C          60.5847   88.8312   10.2264 C.ar    1  UNL1        0.0109
     37 C          61.2462   87.4851   10.2082 C.ar    1  UNL1        0.0744
     38 CL         62.0293   87.0180   11.3992 Cl      1  UNL1       -0.0809
     39 C          61.1246   86.6060    8.9988 C.ar    1  UNL1        0.1095
     40 N          60.3415   87.0730    7.8078 N.ar    1  UNL1       -0.2473
     41 C          58.8969   88.8862    6.6350 C.3     1  UNL1        0.0484
     42 C          59.2901   90.1488    5.9270 C.3     1  UNL1        0.0384
     43 C          58.2349   91.1112    5.4682 C.3     1  UNL1        0.1427
     44 C          59.9699   92.3542    3.9866 C.3     1  UNL1        0.1741
     45 O          58.6125   92.2906    4.6218 O.3     1  UNL1       -0.3511
@<TRIPOS>BOND
     1    44    45    1
     2    45    43    1
     3    43    42    1
     4    42    41    1
     5    41    34    1
     6    34    35   ar
     7    35    36   ar
     8    36    33    1
     9    33    27    1
    10    27    28   am
    11    28    29    2
    12     1    28    1
    13     1     2    1
    14     2     3    1
    15     3     4    1
    16     4     5    1
    17     5     6    1
    18     6     8    1
    19     8     9   ar
    20     9    10   ar
    21    10    11   ar
    22    11    14    1
    23    14    15    1
    24    15    16    1
    25    16    17    1
    26    17    18    1
    27    18    19   ar
    28    19    20    1
    29    19    21   ar
    30    21    22   ar
    31    22    23    1
    32    22    24   ar
    33    24    25   ar
    34    25    26    1
    35    11    12   ar
    36    12    13   ar
    37    27    30    1
    38    30    31    1
    39    31    32    1
    40    36    37   ar
    41    37    38    1
    42    37    39   ar
    43    39    40   ar
    44    40    34   ar
    45     6     1    1
    46    13     8   ar
    47    32    30    1
    48    25    18   ar
    49     3     7    1
@<TRIPOS>MOLECULE
*****
 45 49 0 0 0
SMALL
GASTEIGER

@<TRIPOS>ATOM
      1 C          63.4732   87.1147   13.0700 C.3     1  UNL1        0.0964
      2 C          64.2579   86.6353   14.2551 C.3     1  UNL1        0.0780
      3 N          64.2631   85.1782   14.6114 N.3     1  UNL1       -0.2970
      4 C          63.4838   84.2006   13.7827 C.3     1  UNL1        0.0689
      5 C          62.6991   84.6800   12.5975 C.3     1  UNL1        0.0220
      6 C          62.6939   86.1371   12.2412 C.3     1  UNL1        0.0337
      7 H          63.9061   85.1069   15.5643 H       1  UNL1        0.1233
      8 C          61.9093   86.6165   11.0561 C.ar    1  UNL1       -0.0217
      9 C          62.2954   86.1791    9.6742 C.ar    1  UNL1       -0.0012
     10 C          61.5108   86.6585    8.4891 C.ar    1  UNL1        0.0366
     11 C          60.3400   87.5754    8.6858 C.ar    1  UNL1        0.1387
     12 C          59.9539   88.0129   10.0676 C.ar    1  UNL1        0.0366
     13 C          60.7385   87.5334   11.2528 C.ar    1  UNL1       -0.0012
     14 O          59.5554   88.0548    7.5007 O.3     1  UNL1       -0.4714
     15 C          59.5477   89.5124    7.1462 C.3     1  UNL1        0.2525
     16 C          59.7768   89.9402    5.7269 C.3     1  UNL1        0.2525
     17 O          60.9208   90.8513    5.3936 O.3     1  UNL1       -0.4697
     18 C          60.9255   91.6061    4.0973 C.ar    1  UNL1        0.1596
     19 C          59.7145   92.3863    3.6794 C.ar    1  UNL1        0.0921
     20 CL         58.4988   92.4118    4.5577 Cl      1  UNL1       -0.0791
     21 C          59.7191   93.1411    2.3831 C.ar    1  UNL1        0.0103
     22 C          60.9348   93.1156    1.5047 C.ar    1  UNL1       -0.0200
     23 C          60.9395   93.8703    0.2085 C.3     1  UNL1        0.0311
     24 C          62.1458   92.3353    1.9227 C.ar    1  UNL1        0.0103
     25 C          62.1411   91.5806    3.2189 C.ar    1  UNL1        0.0921
     26 CL         63.3522   90.8003    3.6369 Cl      1  UNL1       -0.0791
     27 N          63.4035   89.6083   13.7959 N.am    1  UNL1       -0.2770
     28 C          63.4680   88.5718   12.7137 C.2     1  UNL1        0.2270
     29 O          63.5271   88.9922   11.2749 O.2     1  UNL1       -0.2748
     30 C          63.3444   89.1878   15.2345 C.3     1  UNL1        0.0758
     31 C          63.1471   89.5314   16.6813 C.3     1  UNL1        0.0215
     32 C          63.4392   88.1160   16.2796 C.3     1  UNL1        0.0215
     33 C          63.3983   91.0654   13.4396 C.3     1  UNL1        0.1210
     34 C          66.2731   92.7414   11.2771 C.ar    1  UNL1        0.0589
     35 C          64.9906   92.0534   11.6399 C.ar    1  UNL1        0.0130
     36 C          64.6808   91.7534   13.0767 C.ar    1  UNL1        0.0109
     37 C          65.6536   92.1414   14.1505 C.ar    1  UNL1        0.0744
     38 CL         65.3439   91.8415   15.5871 Cl      1  UNL1       -0.0809
     39 C          66.9362   92.8295   13.7875 C.ar    1  UNL1        0.1095
     40 N          67.2459   93.1294   12.3509 N.ar    1  UNL1       -0.2473
     41 C          66.5828   93.0414    9.8403 C.3     1  UNL1        0.0484
     42 C          67.5962   94.0920    9.4952 C.3     1  UNL1        0.0384
     43 C          67.1526   95.4949    9.2036 C.3     1  UNL1        0.1427
     44 C          65.9942   96.4858   11.3074 C.3     1  UNL1        0.1741
     45 O          67.1098   96.5122   10.3050 O.3     1  UNL1       -0.3511
@<TRIPOS>BOND
     1    44    45    1
     2    45    43    1
     3    43    42    1
     4    42    41    1
     5    41    34    1
     6    34    35   ar
     7    35    36   ar
     8    36    33    1
     9    33    27    1
    10    27    28   am
    11    28    29    2
    12     1    28    1
    13     1     2    1
    14     2     3    1
    15     3     4    1
    16     4     5    1
    17     5     6    1
    18     6     8    1
    19     8     9   ar
    20     9    10   ar
    21    10    11   ar
    22    11    14    1
    23    14    15    1
    24    15    16    1
    25    16    17    1
    26    17    18    1
    27    18    19   ar
    28    19    20    1
    29    19    21   ar
    30    21    22   ar
    31    22    23    1
    32    22    24   ar
    33    24    25   ar
    34    25    26    1
    35    11    12   ar
    36    12    13   ar
    37    27    30    1
    38    30    31    1
    39    31    32    1
    40    36    37   ar
    41    37    38    1
    42    37    39   ar
    43    39    40   ar
    44    40    34   ar
    45     6     1    1
    46    13     8   ar
    47    32    30    1
    48    25    18   ar
    49     3     7    1
@<TRIPOS>MOLECULE
*****
 45 49 0 0 0
SMALL
GASTEIGER

@<TRIPOS>ATOM
      1 C          63.3091   86.9801   12.8113 C.3     1  UNL1        0.0964
      2 C          64.1074   86.4585   13.9691 C.3     1  UNL1        0.0780
      3 N          64.0300   85.0072   14.3403 N.3     1  UNL1       -0.2970
      4 C          63.1542   84.0776   13.5537 C.3     1  UNL1        0.0689
      5 C          62.3559   84.5992   12.3958 C.3     1  UNL1        0.0220
      6 C          62.4333   86.0505   12.0246 C.3     1  UNL1        0.0337
      7 H          63.7079   84.9674   15.3073 H       1  UNL1        0.1233
      8 C          61.6351   86.5721   10.8668 C.ar    1  UNL1       -0.0217
      9 C          61.9293   86.0926    9.4762 C.ar    1  UNL1       -0.0012
     10 C          61.1310   86.6142    8.3184 C.ar    1  UNL1        0.0366
     11 C          60.0385   87.6154    8.5510 C.ar    1  UNL1        0.1387
     12 C          59.7442   88.0949    9.9415 C.ar    1  UNL1        0.0366
     13 C          60.5425   87.5732   11.0994 C.ar    1  UNL1       -0.0012
     14 O          59.2402   88.1370    7.3932 O.3     1  UNL1       -0.4714
     15 C          59.4009   89.5619    6.9527 C.3     1  UNL1        0.2525
     16 C          59.8316   89.8689    5.5491 C.3     1  UNL1        0.2525
     17 O          60.9612   90.8247    5.3033 O.3     1  UNL1       -0.4697
     18 C          60.9931   91.6405    4.0449 C.ar    1  UNL1        0.1596
     19 C          59.8033   92.4672    3.6566 C.ar    1  UNL1        0.0921
     20 CL         58.5815   92.4781    4.5267 Cl      1  UNL1       -0.0791
     21 C          59.8352   93.2829    2.3982 C.ar    1  UNL1        0.0103
     22 C          61.0571   93.2720    1.5281 C.ar    1  UNL1       -0.0200
     23 C          61.0891   94.0877    0.2698 C.3     1  UNL1        0.0311
     24 C          62.2470   92.4453    1.9165 C.ar    1  UNL1        0.0103
     25 C          62.2150   91.6295    3.1748 C.ar    1  UNL1        0.0921
     26 CL         63.4049   90.8028    3.5632 Cl      1  UNL1       -0.0791
     27 N          63.4384   89.4783   13.5131 N.am    1  UNL1       -0.2770
     28 C          63.3866   88.4314   12.4401 C.2     1  UNL1        0.2270
     29 O          63.4122   88.8358   10.9958 O.2     1  UNL1       -0.2748
     30 C          63.4128   89.0738   14.9573 C.3     1  UNL1        0.0758
     31 C          63.1471   89.4078   16.3953 C.3     1  UNL1        0.0215
     32 C          63.6341   88.0394   16.0207 C.3     1  UNL1        0.0215
     33 C          63.5159   90.9295   13.1419 C.3     1  UNL1        0.1210
     34 C          67.3039   92.1010   12.9730 C.ar    1  UNL1        0.0589
     35 C          66.0195   91.5276   13.4942 C.ar    1  UNL1        0.0130
     36 C          64.8002   91.5029   12.6207 C.ar    1  UNL1        0.0109
     37 C          64.8654   92.0515   11.2262 C.ar    1  UNL1        0.0744
     38 CL         63.6462   92.0268   10.3528 Cl      1  UNL1       -0.0809
     39 C          66.1498   92.6249   10.7051 C.ar    1  UNL1        0.1095
     40 N          67.3690   92.6496   11.5785 N.ar    1  UNL1       -0.2473
     41 C          68.5232   92.1257   13.8464 C.3     1  UNL1        0.0484
     42 C          68.5434   92.9757   15.0822 C.3     1  UNL1        0.0384
     43 C          67.8785   92.4915   16.3365 C.3     1  UNL1        0.1427
     44 C          65.2874   92.3493   16.4634 C.3     1  UNL1        0.1741
     45 O          66.5647   93.0765   16.7628 O.3     1  UNL1       -0.3511
@<TRIPOS>BOND
     1    44    45    1
     2    45    43    1
     3    43    42    1
     4    42    41    1
     5    41    34    1
     6    34    35   ar
     7    35    36   ar
     8    36    33    1
     9    33    27    1
    10    27    28   am
    11    28    29    2
    12     1    28    1
    13     1     2    1
    14     2     3    1
    15     3     4    1
    16     4     5    1
    17     5     6    1
    18     6     8    1
    19     8     9   ar
    20     9    10   ar
    21    10    11   ar
    22    11    14    1
    23    14    15    1
    24    15    16    1
    25    16    17    1
    26    17    18    1
    27    18    19   ar
    28    19    20    1
    29    19    21   ar
    30    21    22   ar
    31    22    23    1
    32    22    24   ar
    33    24    25   ar
    34    25    26    1
    35    11    12   ar
    36    12    13   ar
    37    27    30    1
    38    30    31    1
    39    31    32    1
    40    36    37   ar
    41    37    38    1
    42    37    39   ar
    43    39    40   ar
    44    40    34   ar
    45     6     1    1
    46    13     8   ar
    47    32    30    1
    48    25    18   ar
    49     3     7    1
@<TRIPOS>MOLECULE
*****
 45 49 0 0 0
SMALL
GASTEIGER

@<TRIPOS>ATOM
      1 C          60.8415   90.0138   11.3522 C.3     1  UNL1        0.0964
      2 C          59.9455   91.1475   11.7545 C.3     1  UNL1        0.0780
      3 N          58.5184   90.8786   12.1303 N.3     1  UNL1       -0.2970
      4 C          57.9873   89.4761   12.1037 C.3     1  UNL1        0.0689
      5 C          58.8833   88.3423   11.7014 C.3     1  UNL1        0.0220
      6 C          60.3104   88.6112   11.3256 C.3     1  UNL1        0.0337
      7 H          57.9383   91.4252   11.4937 H       1  UNL1        0.1233
      8 C          61.2064   87.4775   10.9233 C.ar    1  UNL1       -0.0217
      9 C          61.4546   87.1967    9.4708 C.ar    1  UNL1       -0.0012
     10 C          62.3506   86.0630    9.0685 C.ar    1  UNL1        0.0366
     11 C          62.9984   85.2101   10.1186 C.ar    1  UNL1        0.1387
     12 C          62.7503   85.4908   11.5710 C.ar    1  UNL1        0.0366
     13 C          61.8543   86.6245   11.9734 C.ar    1  UNL1       -0.0012
     14 O          63.8944   84.0764    9.7163 O.3     1  UNL1       -0.4714
     15 C          64.0099   82.8643   10.5925 C.3     1  UNL1        0.2525
     16 C          64.9608   82.8653   11.7526 C.3     1  UNL1        0.2525
     17 O          64.5161   82.3449   13.0872 O.3     1  UNL1       -0.4697
     18 C          63.9708   83.2897   14.1169 C.ar    1  UNL1        0.1596
     19 C          64.8042   84.4423   14.5933 C.ar    1  UNL1        0.0921
     20 CL         66.1829   84.6501   14.0401 Cl      1  UNL1       -0.0791
     21 C          64.2589   85.3871   15.6230 C.ar    1  UNL1        0.0103
     22 C          62.8802   85.1792   16.1761 C.ar    1  UNL1       -0.0200
     23 C          62.3349   86.1239   17.2057 C.3     1  UNL1        0.0311
     24 C          62.0468   84.0266   15.6996 C.ar    1  UNL1        0.0103
     25 C          62.5921   83.0819   14.6700 C.ar    1  UNL1        0.0921
     26 CL         61.7587   81.9293   14.1935 Cl      1  UNL1       -0.0791
     27 N          63.3281   90.3253   12.0372 N.am    1  UNL1       -0.2770
     28 C          62.2685   90.2827   10.9764 C.2     1  UNL1        0.2270
     29 O          62.6360   90.5089    9.5398 O.2     1  UNL1       -0.2748
     30 C          62.9607   90.0991   13.4738 C.3     1  UNL1        0.0758
     31 C          62.0580   89.4854   14.5026 C.3     1  UNL1        0.0215
     32 C          63.2269   90.3208   14.9332 C.3     1  UNL1        0.0215
     33 C          64.7552   90.5942   11.6615 C.3     1  UNL1        0.1210
     34 C          65.9042   94.3674   11.2226 C.ar    1  UNL1        0.0589
     35 C          65.2915   93.0294   10.9321 C.ar    1  UNL1        0.0130
     36 C          65.3680   91.9321   11.9520 C.ar    1  UNL1        0.0109
     37 C          66.0572   92.1728   13.2623 C.ar    1  UNL1        0.0744
     38 CL         66.1337   91.0756   14.2822 Cl      1  UNL1       -0.0809
     39 C          66.6700   93.5108   13.5528 C.ar    1  UNL1        0.1095
     40 N          66.5935   94.6081   12.5329 N.ar    1  UNL1       -0.2473
     41 C          65.8277   95.4647   10.2027 C.3     1  UNL1        0.0484
     42 C          66.4427   95.2736    8.8479 C.3     1  UNL1        0.0384
     43 C          67.9281   95.1143    8.7142 C.3     1  UNL1        0.1427
     44 C          68.5388   92.6098    9.0371 C.3     1  UNL1        0.1741
     45 O          68.6392   94.0390    9.4811 O.3     1  UNL1       -0.3511
@<TRIPOS>BOND
     1    44    45    1
     2    45    43    1
     3    43    42    1
     4    42    41    1
     5    41    34    1
     6    34    35   ar
     7    35    36   ar
     8    36    33    1
     9    33    27    1
    10    27    28   am
    11    28    29    2
    12     1    28    1
    13     1     2    1
    14     2     3    1
    15     3     4    1
    16     4     5    1
    17     5     6    1
    18     6     8    1
    19     8     9   ar
    20     9    10   ar
    21    10    11   ar
    22    11    14    1
    23    14    15    1
    24    15    16    1
    25    16    17    1
    26    17    18    1
    27    18    19   ar
    28    19    20    1
    29    19    21   ar
    30    21    22   ar
    31    22    23    1
    32    22    24   ar
    33    24    25   ar
    34    25    26    1
    35    11    12   ar
    36    12    13   ar
    37    27    30    1
    38    30    31    1
    39    31    32    1
    40    36    37   ar
    41    37    38    1
    42    37    39   ar
    43    39    40   ar
    44    40    34   ar
    45     6     1    1
    46    13     8   ar
    47    32    30    1
    48    25    18   ar
    49     3     7    1
@<TRIPOS>MOLECULE
*****
 45 49 0 0 0
SMALL
GASTEIGER

@<TRIPOS>ATOM
      1 C          62.3495   83.4387   12.7232 C.3     1  UNL1        0.0964
      2 C          62.0696   82.1430   12.0214 C.3     1  UNL1        0.0780
      3 N          62.0123   80.8639   12.8028 N.3     1  UNL1       -0.2970
      4 C          62.2349   80.8805   14.2861 C.3     1  UNL1        0.0689
      5 C          62.5148   82.1763   14.9880 C.3     1  UNL1        0.0220
      6 C          62.5721   83.4554   14.2066 C.3     1  UNL1        0.0337
      7 H          62.7189   80.2445   12.4060 H       1  UNL1        0.1233
      8 C          62.8519   84.7512   14.9084 C.ar    1  UNL1       -0.0217
      9 C          62.0474   85.1407   16.1131 C.ar    1  UNL1       -0.0012
     10 C          62.3272   86.4365   16.8149 C.ar    1  UNL1        0.0366
     11 C          63.4116   87.3428   16.3122 C.ar    1  UNL1        0.1387
     12 C          64.2162   86.9533   15.1076 C.ar    1  UNL1        0.0366
     13 C          63.9363   85.6575   14.4057 C.ar    1  UNL1       -0.0012
     14 O          63.6915   88.6385   17.0140 O.3     1  UNL1       -0.4714
     15 C          63.0399   89.9040   16.5405 C.3     1  UNL1        0.2525
     16 C          63.8772   91.0122   15.9742 C.3     1  UNL1        0.2525
     17 O          64.9834   90.6992   15.0108 O.3     1  UNL1       -0.4697
     18 C          65.2504   91.6140   13.8523 C.ar    1  UNL1        0.1596
     19 C          66.1793   92.7802   14.0162 C.ar    1  UNL1        0.0921
     20 CL         66.8413   93.0318   15.3384 Cl      1  UNL1       -0.0791
     21 C          66.4463   93.6950   12.8577 C.ar    1  UNL1        0.0103
     22 C          65.7842   93.4435   11.5354 C.ar    1  UNL1       -0.0200
     23 C          66.0511   94.3582   10.3770 C.3     1  UNL1        0.0311
     24 C          64.8553   92.2771   11.3716 C.ar    1  UNL1        0.0103
     25 C          64.5883   91.3624   12.5300 C.ar    1  UNL1        0.0921
     26 CL         63.6594   90.1961   12.3662 Cl      1  UNL1       -0.0791
     27 N          63.2221   84.7930   10.6850 N.am    1  UNL1       -0.2770
     28 C          62.4068   84.7178   11.9418 C.2     1  UNL1        0.2270
     29 O          61.6487   85.9217   12.4172 O.2     1  UNL1       -0.2748
     30 C          63.9801   83.5891   10.2097 C.3     1  UNL1        0.0758
     31 C          64.9951   82.5125   10.4559 C.3     1  UNL1        0.0215
     32 C          64.2781   82.5805    9.1402 C.3     1  UNL1        0.0215
     33 C          63.2794   86.0721    9.9036 C.3     1  UNL1        0.1210
     34 C          60.2345   88.5326    9.2521 C.ar    1  UNL1        0.0589
     35 C          61.4890   87.9536    9.8360 C.ar    1  UNL1        0.0130
     36 C          62.0250   86.6511    9.3197 C.ar    1  UNL1        0.0109
     37 C          61.3064   85.9278    8.2195 C.ar    1  UNL1        0.0744
     38 CL         61.8423   84.6254    7.7032 Cl      1  UNL1       -0.0809
     39 C          60.0518   86.5069    7.6356 C.ar    1  UNL1        0.1095
     40 N          59.5159   87.8093    8.1519 N.ar    1  UNL1       -0.2473
     41 C          59.6986   89.8350    9.7684 C.3     1  UNL1        0.0484
     42 C          60.2623   90.4334   11.0231 C.3     1  UNL1        0.0384
     43 C          60.0212   89.7678   12.3455 C.3     1  UNL1        0.1427
     44 C          57.8920   88.6721   13.3534 C.3     1  UNL1        0.1741
     45 O          59.0790   88.6044   12.4389 O.3     1  UNL1       -0.3511
@<TRIPOS>BOND
     1    44    45    1
     2    45    43    1
     3    43    42    1
     4    42    41    1
     5    41    34    1
     6    34    35   ar
     7    35    36   ar
     8    36    33    1
     9    33    27    1
    10    27    28   am
    11    28    29    2
    12     1    28    1
    13     1     2    1
    14     2     3    1
    15     3     4    1
    16     4     5    1
    17     5     6    1
    18     6     8    1
    19     8     9   ar
    20     9    10   ar
    21    10    11   ar
    22    11    14    1
    23    14    15    1
    24    15    16    1
    25    16    17    1
    26    17    18    1
    27    18    19   ar
    28    19    20    1
    29    19    21   ar
    30    21    22   ar
    31    22    23    1
    32    22    24   ar
    33    24    25   ar
    34    25    26    1
    35    11    12   ar
    36    12    13   ar
    37    27    30    1
    38    30    31    1
    39    31    32    1
    40    36    37   ar
    41    37    38    1
    42    37    39   ar
    43    39    40   ar
    44    40    34   ar
    45     6     1    1
    46    13     8   ar
    47    32    30    1
    48    25    18   ar
    49     3     7    1
@<TRIPOS>MOLECULE
*****
 45 49 0 0 0
SMALL
GASTEIGER

@<TRIPOS>ATOM
      1 C          62.5737   84.8332   12.7394 C.3     1  UNL1        0.0964
      2 C          62.1664   83.3982   12.8971 C.3     1  UNL1        0.0780
      3 N          62.3619   82.7033   14.2119 N.3     1  UNL1       -0.2970
      4 C          62.9646   83.4433   15.3690 C.3     1  UNL1        0.0689
      5 C          63.3719   84.8784   15.2114 C.3     1  UNL1        0.0220
      6 C          63.1764   85.5733   13.8965 C.3     1  UNL1        0.0337
      7 H          62.9616   81.8978   14.0329 H       1  UNL1        0.1233
      8 C          63.5837   87.0083   13.7388 C.ar    1  UNL1       -0.0217
      9 C          63.2045   87.7637   12.4996 C.ar    1  UNL1       -0.0012
     10 C          63.6117   89.1987   12.3419 C.ar    1  UNL1        0.0366
     11 C          64.3982   89.8784   13.4234 C.ar    1  UNL1        0.1387
     12 C          64.7774   89.1230   14.6625 C.ar    1  UNL1        0.0366
     13 C          64.3701   87.6879   14.8203 C.ar    1  UNL1       -0.0012
     14 O          64.8054   91.3133   13.2656 O.3     1  UNL1       -0.4714
     15 C          65.9987   91.8401   14.0064 C.3     1  UNL1        0.2525
     16 C          67.0830   92.5634   13.2641 C.3     1  UNL1        0.2525
     17 O          67.2907   92.3059   11.8011 O.3     1  UNL1       -0.4697
     18 C          67.2392   93.4434   10.8245 C.ar    1  UNL1        0.1596
     19 C          67.7859   93.2675    9.4388 C.ar    1  UNL1        0.0921
     20 CL         68.3841   91.9543    9.0296 Cl      1  UNL1       -0.0791
     21 C          67.7344   94.4050    8.4623 C.ar    1  UNL1        0.0103
     22 C          67.1362   95.7183    8.8715 C.ar    1  UNL1       -0.0200
     23 C          67.0846   96.8557    7.8951 C.3     1  UNL1        0.0311
     24 C          66.5894   95.8941   10.2573 C.ar    1  UNL1        0.0103
     25 C          66.6409   94.7566   11.2337 C.ar    1  UNL1        0.0921
     26 CL         66.0942   94.9324   12.6195 Cl      1  UNL1       -0.0791
     27 N          63.0172   84.9789   10.1836 N.am    1  UNL1       -0.2770
     28 C          62.3782   85.5282   11.4245 C.2     1  UNL1        0.2270
     29 O          61.5436   86.7724   11.3506 O.2     1  UNL1       -0.2748
     30 C          63.8518   83.7348   10.2575 C.3     1  UNL1        0.0758
     31 C          64.2436   82.3984    9.7003 C.3     1  UNL1        0.0215
     32 C          64.9054   82.9162   10.9428 C.3     1  UNL1        0.0215
     33 C          62.8217   85.6739    8.8687 C.3     1  UNL1        0.1210
     34 C          60.1334   88.5891    9.0248 C.ar    1  UNL1        0.0589
     35 C          61.3829   87.7984    9.2767 C.ar    1  UNL1        0.0130
     36 C          61.5723   86.4646    8.6168 C.ar    1  UNL1        0.0109
     37 C          60.5121   85.9217    7.7051 C.ar    1  UNL1        0.0744
     38 CL         60.7014   84.5880    7.0453 Cl      1  UNL1       -0.0809
     39 C          59.2626   86.7125    7.4532 C.ar    1  UNL1        0.1095
     40 N          59.0732   88.0461    8.1130 N.ar    1  UNL1       -0.2473
     41 C          59.9440   89.9229    9.6846 C.3     1  UNL1        0.0484
     42 C          60.6341   90.2223   10.9824 C.3     1  UNL1        0.0384
     43 C          59.9370   89.9509   12.2825 C.3     1  UNL1        0.1427
     44 C          57.9547   88.6506   13.3454 C.3     1  UNL1        0.1741
     45 O          59.1740   88.6734   12.4720 O.3     1  UNL1       -0.3511
@<TRIPOS>BOND
     1    44    45    1
     2    45    43    1
     3    43    42    1
     4    42    41    1
     5    41    34    1
     6    34    35   ar
     7    35    36   ar
     8    36    33    1
     9    33    27    1
    10    27    28   am
    11    28    29    2
    12     1    28    1
    13     1     2    1
    14     2     3    1
    15     3     4    1
    16     4     5    1
    17     5     6    1
    18     6     8    1
    19     8     9   ar
    20     9    10   ar
    21    10    11   ar
    22    11    14    1
    23    14    15    1
    24    15    16    1
    25    16    17    1
    26    17    18    1
    27    18    19   ar
    28    19    20    1
    29    19    21   ar
    30    21    22   ar
    31    22    23    1
    32    22    24   ar
    33    24    25   ar
    34    25    26    1
    35    11    12   ar
    36    12    13   ar
    37    27    30    1
    38    30    31    1
    39    31    32    1
    40    36    37   ar
    41    37    38    1
    42    37    39   ar
    43    39    40   ar
    44    40    34   ar
    45     6     1    1
    46    13     8   ar
    47    32    30    1
    48    25    18   ar
    49     3     7    1
