@<TRIPOS>MOLECULE
*****
 32 35 0 0 0
SMALL
GASTEIGER

@<TRIPOS>ATOM
      1 C          61.8300   89.8971   11.1895 C.3     1  UNL1        0.1010
      2 N          62.9773   90.8495   11.3529 N.am    1  UNL1       -0.2438
      3 C          63.5874   91.5024   10.1481 C.3     1  UNL1        0.1009
      4 C          64.7348   92.4547   10.3115 C.3     1  UNL1        0.0661
      5 C          65.2720   92.7541   11.6796 C.3     1  UNL1        0.1577
      6 O          64.6618   92.1012   12.8844 O.3     1  UNL1       -0.4375
      7 C          63.5145   91.1489   12.7210 C.2     1  UNL1        0.4051
      8 O          62.9044   90.4960   13.9258 O.2     1  UNL1       -0.2262
      9 C          66.1780   93.6149   10.8499 C.ar    1  UNL1        0.0137
     10 C          67.2438   92.9842   10.0035 C.ar    1  UNL1       -0.0010
     11 C          68.1498   93.8450    9.1738 C.ar    1  UNL1       -0.0002
     12 C          67.9898   95.3363    9.1905 C.ar    1  UNL1       -0.0000
     13 C          66.9240   95.9670   10.0369 C.ar    1  UNL1       -0.0002
     14 C          66.0180   95.1062   10.8666 C.ar    1  UNL1       -0.0010
     15 C          66.1238   93.3525   12.7596 C.3     1  UNL1        0.0446
     16 C          66.9073   92.4613   13.6771 C.3     1  UNL1        0.0041
     17 C          62.0150   88.4404   11.4957 C.ar    1  UNL1       -0.0042
     18 C          63.1109   88.0018   12.4213 C.ar    1  UNL1       -0.0027
     19 C          63.2959   86.5452   12.7275 C.ar    1  UNL1       -0.0003
     20 C          62.3850   85.5270   12.1080 C.ar    1  UNL1        0.0002
     21 C          61.2892   85.9655   11.1824 C.ar    1  UNL1       -0.0003
     22 C          61.1042   87.4222   10.8763 C.ar    1  UNL1       -0.0027
     23 C          62.5701   84.0702   12.4142 C.ar    1  UNL1        0.0062
     24 C          62.5561   83.5952   13.8369 C.ar    1  UNL1        0.0189
     25 C          62.7412   82.1385   14.1431 C.ar    1  UNL1        0.0784
     26 N          62.9402   81.1568   13.0266 N.ar    1  UNL1       -0.2922
     27 C          63.1252   79.7001   13.3327 C.3     1  UNL1        0.1336
     28 C          62.9541   81.6319   11.6038 C.ar    1  UNL1        0.2610
     29 O          63.1531   80.6502   10.4872 O.2     1  UNL1       -0.2670
     30 C          62.7691   83.0885   11.2977 C.ar    1  UNL1        0.0608
     31 C          59.3496   90.4939   11.6809 C.3     1  UNL1        0.0021
     32 C          60.4977   90.4015   10.7200 C.3     1  UNL1        0.0245
@<TRIPOS>BOND
     1    31    32    1
     2     1    32    1
     3     1    17    1
     4    17    18   ar
     5    18    19   ar
     6    19    20   ar
     7    20    23    1
     8    23    24   ar
     9    24    25   ar
    10    25    26   ar
    11    26    27    1
    12    26    28   ar
    13    28    29    2
    14    28    30   ar
    15    20    21   ar
    16    21    22   ar
    17     1     2    1
    18     2     3    1
    19     3     4    1
    20     4     5    1
    21     5    15    1
    22    15    16    1
    23     5     9    1
    24     9    10   ar
    25    10    11   ar
    26    11    12   ar
    27    12    13   ar
    28    13    14   ar
    29     5     6    1
    30     6     7    1
    31     7     8    2
    32    22    17   ar
    33     7     2   am
    34    30    23   ar
    35    14     9   ar
@<TRIPOS>MOLECULE
*****
 32 35 0 0 0
SMALL
GASTEIGER

@<TRIPOS>ATOM
      1 C          62.3329   89.6146   11.4161 C.3     1  UNL1        0.1010
      2 N          63.4704   90.4885   11.8546 N.am    1  UNL1       -0.2438
      3 C          64.1255   90.2562   13.1838 C.3     1  UNL1        0.1009
      4 C          65.2631   91.1301   13.6222 C.3     1  UNL1        0.0661
      5 C          65.7456   92.2363   12.7315 C.3     1  UNL1        0.1577
      6 O          65.0905   92.4687   11.4023 O.3     1  UNL1       -0.4375
      7 C          63.9529   91.5948   10.9638 C.2     1  UNL1        0.4051
      8 O          63.2978   91.8272    9.6346 O.2     1  UNL1       -0.2262
      9 C          66.6811   92.4089   13.8913 C.ar    1  UNL1        0.0137
     10 C          68.1597   92.2551   13.6915 C.ar    1  UNL1       -0.0010
     11 C          69.0953   92.4278   14.8512 C.ar    1  UNL1       -0.0002
     12 C          68.5521   92.7542   16.2108 C.ar    1  UNL1       -0.0000
     13 C          67.0734   92.9081   16.4106 C.ar    1  UNL1       -0.0002
     14 C          66.1379   92.7354   15.2508 C.ar    1  UNL1       -0.0010
     15 C          66.5530   93.4025   12.2436 C.3     1  UNL1        0.0446
     16 C          65.9916   94.3174   11.1958 C.3     1  UNL1        0.0041
     17 C          62.3897   88.1345   11.6528 C.ar    1  UNL1       -0.0042
     18 C          61.5556   87.2088   10.8178 C.ar    1  UNL1       -0.0027
     19 C          61.6125   85.7287   11.0546 C.ar    1  UNL1       -0.0003
     20 C          62.5035   85.1743   12.1263 C.ar    1  UNL1        0.0002
     21 C          63.3377   86.1000   12.9613 C.ar    1  UNL1       -0.0003
     22 C          63.2808   87.5801   12.7246 C.ar    1  UNL1       -0.0027
     23 C          62.5604   83.6942   12.3631 C.ar    1  UNL1        0.0062
     24 C          62.3742   83.1484   13.7478 C.ar    1  UNL1        0.0189
     25 C          62.4310   81.6682   13.9845 C.ar    1  UNL1        0.0784
     26 N          62.6741   80.7339   12.8365 N.ar    1  UNL1       -0.2922
     27 C          62.7310   79.2538   13.0731 C.3     1  UNL1        0.1336
     28 C          62.8603   81.2798   11.4517 C.ar    1  UNL1        0.2610
     29 O          63.1034   80.3454   10.3037 O.2     1  UNL1       -0.2670
     30 C          62.8034   82.7599   11.2151 C.ar    1  UNL1        0.0608
     31 C          59.8315   90.3148   11.4711 C.3     1  UNL1        0.0021
     32 C          61.1385   90.2208   10.7409 C.3     1  UNL1        0.0245
@<TRIPOS>BOND
     1    31    32    1
     2     1    32    1
     3     1    17    1
     4    17    18   ar
     5    18    19   ar
     6    19    20   ar
     7    20    23    1
     8    23    24   ar
     9    24    25   ar
    10    25    26   ar
    11    26    27    1
    12    26    28   ar
    13    28    29    2
    14    28    30   ar
    15    20    21   ar
    16    21    22   ar
    17     1     2    1
    18     2     3    1
    19     3     4    1
    20     4     5    1
    21     5    15    1
    22    15    16    1
    23     5     9    1
    24     9    10   ar
    25    10    11   ar
    26    11    12   ar
    27    12    13   ar
    28    13    14   ar
    29     5     6    1
    30     6     7    1
    31     7     8    2
    32    22    17   ar
    33     7     2   am
    34    30    23   ar
    35    14     9   ar
@<TRIPOS>MOLECULE
*****
 32 35 0 0 0
SMALL
GASTEIGER

@<TRIPOS>ATOM
      1 C          63.9114   89.6948   15.2128 C.3     1  UNL1        0.1010
      2 N          63.7919   88.2420   14.8593 N.am    1  UNL1       -0.2438
      3 C          63.9785   87.7979   13.4387 C.3     1  UNL1        0.1009
      4 C          63.8590   86.3451   13.0852 C.3     1  UNL1        0.0661
      5 C          63.5530   85.3363   14.1523 C.3     1  UNL1        0.1577
      6 O          63.3665   85.7803   15.5729 O.3     1  UNL1       -0.4375
      7 C          63.4859   87.2332   15.9264 C.2     1  UNL1        0.4051
      8 O          63.2994   87.6772   17.3470 O.2     1  UNL1       -0.2262
      9 C          63.6443   84.4329   12.9583 C.ar    1  UNL1        0.0137
     10 C          62.9200   84.7864   11.6932 C.ar    1  UNL1       -0.0010
     11 C          63.0113   83.8831   10.4992 C.ar    1  UNL1       -0.0002
     12 C          63.8269   82.6262   10.5704 C.ar    1  UNL1       -0.0000
     13 C          64.5512   82.2726   11.8354 C.ar    1  UNL1       -0.0002
     14 C          64.4599   83.1760   13.0294 C.ar    1  UNL1       -0.0010
     15 C          63.2787   84.0137   14.8047 C.3     1  UNL1        0.0446
     16 C          62.0140   83.8104   15.5852 C.3     1  UNL1        0.0041
     17 C          64.4819   90.6638   14.2199 C.ar    1  UNL1       -0.0042
     18 C          65.8560   91.2285   14.4274 C.ar    1  UNL1       -0.0027
     19 C          66.4264   92.1974   13.4346 C.ar    1  UNL1       -0.0003
     20 C          65.6228   92.6017   12.2343 C.ar    1  UNL1        0.0002
     21 C          64.2487   92.0371   12.0268 C.ar    1  UNL1       -0.0003
     22 C          63.6783   91.0681   13.0196 C.ar    1  UNL1       -0.0027
     23 C          66.1933   93.5707   11.2415 C.ar    1  UNL1        0.0062
     24 C          66.0149   95.0459   11.4456 C.ar    1  UNL1        0.0189
     25 C          66.5855   96.0149   10.4528 C.ar    1  UNL1        0.0784
     26 N          67.3343   95.5086    9.2558 N.ar    1  UNL1       -0.2922
     27 C          67.9049   96.4775    8.2630 C.3     1  UNL1        0.1336
     28 C          67.5127   94.0332    9.0517 C.ar    1  UNL1        0.2610
     29 O          68.2616   93.5268    7.8547 O.2     1  UNL1       -0.2670
     30 C          66.9422   93.0643   10.0445 C.ar    1  UNL1        0.0608
     31 C          63.7248   91.5958   16.9739 C.3     1  UNL1        0.0021
     32 C          63.4604   90.1787   16.5590 C.3     1  UNL1        0.0245
@<TRIPOS>BOND
     1    31    32    1
     2     1    32    1
     3     1    17    1
     4    17    18   ar
     5    18    19   ar
     6    19    20   ar
     7    20    23    1
     8    23    24   ar
     9    24    25   ar
    10    25    26   ar
    11    26    27    1
    12    26    28   ar
    13    28    29    2
    14    28    30   ar
    15    20    21   ar
    16    21    22   ar
    17     1     2    1
    18     2     3    1
    19     3     4    1
    20     4     5    1
    21     5    15    1
    22    15    16    1
    23     5     9    1
    24     9    10   ar
    25    10    11   ar
    26    11    12   ar
    27    12    13   ar
    28    13    14   ar
    29     5     6    1
    30     6     7    1
    31     7     8    2
    32    22    17   ar
    33     7     2   am
    34    30    23   ar
    35    14     9   ar
@<TRIPOS>MOLECULE
*****
 32 35 0 0 0
SMALL
GASTEIGER

@<TRIPOS>ATOM
      1 C          63.8190   89.3553   15.1150 C.3     1  UNL1        0.1010
      2 N          64.5379   90.5053   14.4742 N.am    1  UNL1       -0.2438
      3 C          64.7684   90.5136   12.9921 C.3     1  UNL1        0.1009
      4 C          65.4873   91.6636   12.3513 C.3     1  UNL1        0.0661
      5 C          65.9758   92.8053   13.1926 C.3     1  UNL1        0.1577
      6 O          65.7454   92.7970   14.6748 O.3     1  UNL1       -0.4375
      7 C          65.0264   91.6470   15.3156 C.2     1  UNL1        0.4051
      8 O          64.7960   91.6387   16.7977 O.2     1  UNL1       -0.2262
      9 C          66.4308   93.2656   11.8394 C.ar    1  UNL1        0.0137
     10 C          66.0369   94.6231   11.3374 C.ar    1  UNL1       -0.0010
     11 C          66.4919   95.0835    9.9842 C.ar    1  UNL1       -0.0002
     12 C          67.3407   94.1862    9.1331 C.ar    1  UNL1       -0.0000
     13 C          67.7346   92.8287    9.6350 C.ar    1  UNL1       -0.0002
     14 C          67.2796   92.3684   10.9882 C.ar    1  UNL1       -0.0010
     15 C          66.6223   94.1069   13.5640 C.3     1  UNL1        0.0446
     16 C          67.5287   94.1806   14.7568 C.3     1  UNL1        0.0041
     17 C          63.7277   88.0377   14.4037 C.ar    1  UNL1       -0.0042
     18 C          63.1139   87.9642   13.0371 C.ar    1  UNL1       -0.0027
     19 C          63.0226   86.6467   12.3259 C.ar    1  UNL1       -0.0003
     20 C          63.5451   85.4028   12.9813 C.ar    1  UNL1        0.0002
     21 C          64.1589   85.4763   14.3480 C.ar    1  UNL1       -0.0003
     22 C          64.2502   86.7938   15.0592 C.ar    1  UNL1       -0.0027
     23 C          63.4538   84.0853   12.2700 C.ar    1  UNL1        0.0062
     24 C          63.9442   83.9596   10.8580 C.ar    1  UNL1        0.0189
     25 C          63.8529   82.6421   10.1468 C.ar    1  UNL1        0.0784
     26 N          63.2712   81.4502   10.8475 N.ar    1  UNL1       -0.2922
     27 C          63.1798   80.1328   10.1363 C.3     1  UNL1        0.1336
     28 C          62.7808   81.5759   12.2596 C.ar    1  UNL1        0.2610
     29 O          62.1991   80.3840   12.9603 O.2     1  UNL1       -0.2670
     30 C          62.8721   82.8934   12.9708 C.ar    1  UNL1        0.0608
     31 C          62.9210   88.3206   17.3225 C.3     1  UNL1        0.0021
     32 C          63.1914   89.5228   16.4670 C.3     1  UNL1        0.0245
@<TRIPOS>BOND
     1    31    32    1
     2     1    32    1
     3     1    17    1
     4    17    18   ar
     5    18    19   ar
     6    19    20   ar
     7    20    23    1
     8    23    24   ar
     9    24    25   ar
    10    25    26   ar
    11    26    27    1
    12    26    28   ar
    13    28    29    2
    14    28    30   ar
    15    20    21   ar
    16    21    22   ar
    17     1     2    1
    18     2     3    1
    19     3     4    1
    20     4     5    1
    21     5    15    1
    22    15    16    1
    23     5     9    1
    24     9    10   ar
    25    10    11   ar
    26    11    12   ar
    27    12    13   ar
    28    13    14   ar
    29     5     6    1
    30     6     7    1
    31     7     8    2
    32    22    17   ar
    33     7     2   am
    34    30    23   ar
    35    14     9   ar
@<TRIPOS>MOLECULE
*****
 32 35 0 0 0
SMALL
GASTEIGER

@<TRIPOS>ATOM
      1 C          62.0307   88.2096   11.5275 C.3     1  UNL1        0.1010
      2 N          62.3156   86.7386   11.4566 N.am    1  UNL1       -0.2438
      3 C          62.3276   85.9157   12.7107 C.3     1  UNL1        0.1009
      4 C          62.6125   84.4447   12.6398 C.3     1  UNL1        0.0661
      5 C          62.8854   83.7966   11.3149 C.3     1  UNL1        0.1577
      6 O          62.8734   84.6195   10.0608 O.3     1  UNL1       -0.4375
      7 C          62.5885   86.0905   10.1316 C.2     1  UNL1        0.4051
      8 O          62.5765   86.9134    8.8776 O.2     1  UNL1       -0.2262
      9 C          63.0068   82.6049   12.2178 C.ar    1  UNL1        0.0137
     10 C          63.8843   82.6706   13.4325 C.ar    1  UNL1       -0.0010
     11 C          64.0057   81.4789   14.3354 C.ar    1  UNL1       -0.0002
     12 C          63.2496   80.2215   14.0234 C.ar    1  UNL1       -0.0000
     13 C          62.3722   80.1558   12.8086 C.ar    1  UNL1       -0.0002
     14 C          62.2507   81.3475   11.9057 C.ar    1  UNL1       -0.0010
     15 C          63.2004   82.7346   10.3035 C.3     1  UNL1        0.0446
     16 C          64.6212   82.4926    9.8879 C.3     1  UNL1        0.0041
     17 C          63.0261   89.1367   12.1598 C.ar    1  UNL1       -0.0042
     18 C          63.3800   90.4295   11.4865 C.ar    1  UNL1       -0.0027
     19 C          64.3754   91.3565   12.1189 C.ar    1  UNL1       -0.0003
     20 C          65.0167   90.9907   13.4246 C.ar    1  UNL1        0.0002
     21 C          64.6628   89.6980   14.0979 C.ar    1  UNL1       -0.0003
     22 C          63.6675   88.7709   13.4655 C.ar    1  UNL1       -0.0027
     23 C          66.0121   91.9178   14.0569 C.ar    1  UNL1        0.0062
     24 C          66.0706   93.3561   13.6352 C.ar    1  UNL1        0.0189
     25 C          67.0660   94.2832   14.2676 C.ar    1  UNL1        0.0784
     26 N          68.0028   93.7719   15.3217 N.ar    1  UNL1       -0.2922
     27 C          68.9981   94.6989   15.9540 C.3     1  UNL1        0.1336
     28 C          67.9442   92.3336   15.7433 C.ar    1  UNL1        0.2610
     29 O          68.8810   91.8223   16.7974 O.2     1  UNL1       -0.2670
     30 C          66.9489   91.4066   15.1110 C.ar    1  UNL1        0.0608
     31 C          60.7453   89.4247    9.6245 C.3     1  UNL1        0.0021
     32 C          60.7506   88.7535   10.9660 C.3     1  UNL1        0.0245
@<TRIPOS>BOND
     1    31    32    1
     2     1    32    1
     3     1    17    1
     4    17    18   ar
     5    18    19   ar
     6    19    20   ar
     7    20    23    1
     8    23    24   ar
     9    24    25   ar
    10    25    26   ar
    11    26    27    1
    12    26    28   ar
    13    28    29    2
    14    28    30   ar
    15    20    21   ar
    16    21    22   ar
    17     1     2    1
    18     2     3    1
    19     3     4    1
    20     4     5    1
    21     5    15    1
    22    15    16    1
    23     5     9    1
    24     9    10   ar
    25    10    11   ar
    26    11    12   ar
    27    12    13   ar
    28    13    14   ar
    29     5     6    1
    30     6     7    1
    31     7     8    2
    32    22    17   ar
    33     7     2   am
    34    30    23   ar
    35    14     9   ar
@<TRIPOS>MOLECULE
*****
 32 35 0 0 0
SMALL
GASTEIGER

@<TRIPOS>ATOM
      1 C          61.6778   88.8596   11.8665 C.3     1  UNL1        0.1010
      2 N          62.2471   87.4935   12.1104 N.am    1  UNL1       -0.2438
      3 C          61.8251   86.3403   11.2490 C.3     1  UNL1        0.1009
      4 C          62.3943   84.9742   11.4930 C.3     1  UNL1        0.0661
      5 C          63.3856   84.7611   12.5984 C.3     1  UNL1        0.1577
      6 O          63.8076   85.9143   13.4599 O.3     1  UNL1       -0.4375
      7 C          63.2384   87.2805   13.2159 C.2     1  UNL1        0.4051
      8 O          63.6604   88.4336   14.0774 O.2     1  UNL1       -0.2262
      9 C          63.2972   83.3657   12.0554 C.ar    1  UNL1        0.0137
     10 C          62.6176   82.2922   12.8528 C.ar    1  UNL1       -0.0010
     11 C          62.5291   80.8968   12.3097 C.ar    1  UNL1       -0.0002
     12 C          63.1204   80.5748   10.9693 C.ar    1  UNL1       -0.0000
     13 C          63.8000   81.6482   10.1719 C.ar    1  UNL1       -0.0002
     14 C          63.8884   83.0437   10.7149 C.ar    1  UNL1       -0.0010
     15 C          64.3462   84.0635   13.5153 C.3     1  UNL1        0.0446
     16 C          64.3751   84.4087   14.9747 C.3     1  UNL1        0.0041
     17 C          62.5864   89.9972   11.5051 C.ar    1  UNL1       -0.0042
     18 C          62.6693   90.4684   10.0835 C.ar    1  UNL1       -0.0027
     19 C          63.5779   91.6058    9.7222 C.ar    1  UNL1       -0.0003
     20 C          64.4035   92.2721   10.7825 C.ar    1  UNL1        0.0002
     21 C          64.3207   91.8010   12.2041 C.ar    1  UNL1       -0.0003
     22 C          63.4121   90.6635   12.5654 C.ar    1  UNL1       -0.0027
     23 C          65.3122   93.4097   10.4211 C.ar    1  UNL1        0.0062
     24 C          64.7881   94.8151   10.4142 C.ar    1  UNL1        0.0189
     25 C          65.6967   95.9526   10.0528 C.ar    1  UNL1        0.0784
     26 N          67.1294   95.6847    9.6984 N.ar    1  UNL1       -0.2922
     27 C          68.0380   96.8221    9.3371 C.3     1  UNL1        0.1336
     28 C          67.6534   94.2792    9.7054 C.ar    1  UNL1        0.2610
     29 O          69.0861   94.0112    9.3510 O.2     1  UNL1       -0.2670
     30 C          66.7448   93.1417   10.0667 C.ar    1  UNL1        0.0608
     31 C          59.6067   90.3961   11.5506 C.3     1  UNL1        0.0021
     32 C          60.2000   89.0883   11.9838 C.3     1  UNL1        0.0245
@<TRIPOS>BOND
     1    31    32    1
     2     1    32    1
     3     1    17    1
     4    17    18   ar
     5    18    19   ar
     6    19    20   ar
     7    20    23    1
     8    23    24   ar
     9    24    25   ar
    10    25    26   ar
    11    26    27    1
    12    26    28   ar
    13    28    29    2
    14    28    30   ar
    15    20    21   ar
    16    21    22   ar
    17     1     2    1
    18     2     3    1
    19     3     4    1
    20     4     5    1
    21     5    15    1
    22    15    16    1
    23     5     9    1
    24     9    10   ar
    25    10    11   ar
    26    11    12   ar
    27    12    13   ar
    28    13    14   ar
    29     5     6    1
    30     6     7    1
    31     7     8    2
    32    22    17   ar
    33     7     2   am
    34    30    23   ar
    35    14     9   ar
