@<TRIPOS>MOLECULE
*****
 21 23 0 0 0
SMALL
GASTEIGER

@<TRIPOS>ATOM
      1 C          64.1404   89.1179   14.0198 C.ar    1  UNL1        0.0122
      2 C          64.3816   87.7473   14.5795 C.ar    1  UNL1        0.0009
      3 C          63.8787   86.5389   13.8469 C.ar    1  UNL1        0.0001
      4 C          63.1345   86.7011   12.5546 C.ar    1  UNL1        0.0010
      5 C          62.6315   85.4926   11.8220 C.ar    1  UNL1        0.0031
      6 C          61.8874   85.6548   10.5298 C.ar    1  UNL1        0.0366
      7 C          61.6462   87.0255    9.9702 C.ar    1  UNL1        0.1337
      8 O          60.9020   87.1876    8.6779 O.3     1  UNL1       -0.5055
      9 C          62.1491   88.2339   10.7027 C.ar    1  UNL1        0.0375
     10 C          62.8933   88.0717   11.9950 C.ar    1  UNL1        0.0136
     11 C          63.3963   89.2801   12.7276 C.ar    1  UNL1        0.0578
     12 CL         63.1551   90.6508   12.1680 Cl      1  UNL1       -0.0822
     13 H          60.5878   86.4328    8.2202 H       1  UNL1        0.2922
     14 C          66.4481   92.1650   15.0874 C.ar    1  UNL1        0.1578
     15 C          65.6493   92.7432   16.2178 C.ar    1  UNL1        0.1356
     16 N          64.3475   92.1129   16.6155 N.ar    1  UNL1       -0.2391
     17 C          63.8446   90.9045   15.8828 C.ar    1  UNL1        0.0991
     18 C          64.6434   90.3264   14.7525 C.ar    1  UNL1        0.0230
     19 C          65.9451   90.9567   14.3548 C.ar    1  UNL1        0.0401
     20 C          68.8168   93.0259   15.7186 C.3     1  UNL1        0.2525
     21 O          67.7499   92.7954   14.6898 O.3     1  UNL1       -0.4699
@<TRIPOS>BOND
     1    20    21    1
     2    21    14    1
     3    14    15   ar
     4    15    16   ar
     5    16    17   ar
     6    17    18   ar
     7    18     1    1
     8     1     2   ar
     9     2     3   ar
    10     3     4   ar
    11     4     5   ar
    12     5     6   ar
    13     6     7   ar
    14     7     8    1
    15     7     9   ar
    16     9    10   ar
    17    10    11   ar
    18    11    12    1
    19    18    19   ar
    20    19    14   ar
    21    11     1   ar
    22    10     4   ar
    23     8    13    1
@<TRIPOS>MOLECULE
*****
 21 23 0 0 0
SMALL
GASTEIGER

@<TRIPOS>ATOM
      1 C          63.2777   90.6198   11.4476 C.ar    1  UNL1        0.0122
      2 C          63.9111   91.5179   10.4267 C.ar    1  UNL1        0.0009
      3 C          64.9630   92.5026   10.8436 C.ar    1  UNL1        0.0001
      4 C          65.3815   92.5893   12.2815 C.ar    1  UNL1        0.0010
      5 C          66.4333   93.5740   12.6984 C.ar    1  UNL1        0.0031
      6 C          66.8517   93.6607   14.1362 C.ar    1  UNL1        0.0366
      7 C          66.2183   92.7626   15.1571 C.ar    1  UNL1        0.1337
      8 O          66.6368   92.8493   16.5950 O.3     1  UNL1       -0.5055
      9 C          65.1665   91.7779   14.7402 C.ar    1  UNL1        0.0375
     10 C          64.7481   91.6912   13.3024 C.ar    1  UNL1        0.0136
     11 C          63.6961   90.7065   12.8854 C.ar    1  UNL1        0.0578
     12 CL         63.0627   89.8084   13.9063 Cl      1  UNL1       -0.0822
     13 H          67.2939   93.4645   16.8554 H       1  UNL1        0.2922
     14 C          61.4017   87.1810   10.8111 C.ar    1  UNL1        0.1578
     15 C          60.1221   87.6657   10.1967 C.ar    1  UNL1        0.1356
     16 N          59.8943   89.1350    9.9992 N.ar    1  UNL1       -0.2391
     17 C          60.9462   90.1197   10.4162 C.ar    1  UNL1        0.0991
     18 C          62.2258   89.6350   11.0306 C.ar    1  UNL1        0.0230
     19 C          62.4536   88.1657   11.2281 C.ar    1  UNL1        0.0401
     20 C          62.5944   85.2359   12.0538 C.3     1  UNL1        0.2525
     21 O          61.6295   85.7115   11.0086 O.3     1  UNL1       -0.4699
@<TRIPOS>BOND
     1    20    21    1
     2    21    14    1
     3    14    15   ar
     4    15    16   ar
     5    16    17   ar
     6    17    18   ar
     7    18     1    1
     8     1     2   ar
     9     2     3   ar
    10     3     4   ar
    11     4     5   ar
    12     5     6   ar
    13     6     7   ar
    14     7     8    1
    15     7     9   ar
    16     9    10   ar
    17    10    11   ar
    18    11    12    1
    19    18    19   ar
    20    19    14   ar
    21    11     1   ar
    22    10     4   ar
    23     8    13    1
@<TRIPOS>MOLECULE
*****
 21 23 0 0 0
SMALL
GASTEIGER

@<TRIPOS>ATOM
      1 C          63.0324   89.6983   11.8870 C.ar    1  UNL1        0.0122
      2 C          63.4987   89.2264   13.2324 C.ar    1  UNL1        0.0009
      3 C          64.5305   90.0117   13.9864 C.ar    1  UNL1        0.0001
      4 C          65.0961   91.2690   13.3951 C.ar    1  UNL1        0.0010
      5 C          66.1279   92.0543   14.1491 C.ar    1  UNL1        0.0031
      6 C          66.6935   93.3114   13.5577 C.ar    1  UNL1        0.0366
      7 C          66.2272   93.7832   12.2124 C.ar    1  UNL1        0.1337
      8 O          66.7928   95.0404   11.6211 O.3     1  UNL1       -0.5055
      9 C          65.1954   92.9979   11.4584 C.ar    1  UNL1        0.0375
     10 C          64.6298   91.7408   12.0497 C.ar    1  UNL1        0.0136
     11 C          63.5980   90.9554   11.2957 C.ar    1  UNL1        0.0578
     12 CL         63.1317   91.4272    9.9503 Cl      1  UNL1       -0.0822
     13 H          67.4374   95.5310   12.0921 H       1  UNL1        0.2922
     14 C          61.3955   87.0958    9.3775 C.ar    1  UNL1        0.1578
     15 C          59.9368   87.3423    9.6251 C.ar    1  UNL1        0.1356
     16 N          59.5099   88.3741   10.6266 N.ar    1  UNL1       -0.2391
     17 C          60.5418   89.1594   11.3806 C.ar    1  UNL1        0.0991
     18 C          62.0005   88.9129   11.1330 C.ar    1  UNL1        0.0230
     19 C          62.4274   87.8811   10.1315 C.ar    1  UNL1        0.0401
     20 C          63.0805   85.2780    8.5985 C.3     1  UNL1        0.2525
     21 O          61.8224   86.0639    8.3759 O.3     1  UNL1       -0.4699
@<TRIPOS>BOND
     1    20    21    1
     2    21    14    1
     3    14    15   ar
     4    15    16   ar
     5    16    17   ar
     6    17    18   ar
     7    18     1    1
     8     1     2   ar
     9     2     3   ar
    10     3     4   ar
    11     4     5   ar
    12     5     6   ar
    13     6     7   ar
    14     7     8    1
    15     7     9   ar
    16     9    10   ar
    17    10    11   ar
    18    11    12    1
    19    18    19   ar
    20    19    14   ar
    21    11     1   ar
    22    10     4   ar
    23     8    13    1
@<TRIPOS>MOLECULE
*****
 21 23 0 0 0
SMALL
GASTEIGER

@<TRIPOS>ATOM
      1 C          63.8533   90.1040   13.1369 C.ar    1  UNL1        0.0122
      2 C          63.2139   90.7342   11.9352 C.ar    1  UNL1        0.0009
      3 C          62.5297   89.8758   10.9130 C.ar    1  UNL1        0.0001
      4 C          62.4848   88.3872   11.0924 C.ar    1  UNL1        0.0010
      5 C          61.8005   87.5289   10.0702 C.ar    1  UNL1        0.0031
      6 C          61.7557   86.0404   10.2496 C.ar    1  UNL1        0.0366
      7 C          62.3951   85.4102   11.4513 C.ar    1  UNL1        0.1337
      8 O          62.3503   83.9216   11.6307 O.3     1  UNL1       -0.5055
      9 C          63.0794   86.2685   12.4735 C.ar    1  UNL1        0.0375
     10 C          63.1242   87.7570   12.2941 C.ar    1  UNL1        0.0136
     11 C          63.8085   88.6155   13.3163 C.ar    1  UNL1        0.0578
     12 CL         64.4479   87.9853   14.5180 Cl      1  UNL1       -0.0822
     13 H          61.9228   83.3854   10.9921 H       1  UNL1        0.2922
     14 C          66.5517   92.4413   14.8707 C.ar    1  UNL1        0.1578
     15 C          65.9061   92.6791   16.2036 C.ar    1  UNL1        0.1356
     16 N          64.5763   92.0586   16.5143 N.ar    1  UNL1       -0.2391
     17 C          63.8921   91.2003   15.4921 C.ar    1  UNL1        0.0991
     18 C          64.5376   90.9624   14.1591 C.ar    1  UNL1        0.0230
     19 C          65.8674   91.5829   13.8485 C.ar    1  UNL1        0.0401
     20 C          68.8189   93.4235   15.6738 C.3     1  UNL1        0.2525
     21 O          67.8815   93.0618   14.5601 O.3     1  UNL1       -0.4699
@<TRIPOS>BOND
     1    20    21    1
     2    21    14    1
     3    14    15   ar
     4    15    16   ar
     5    16    17   ar
     6    17    18   ar
     7    18     1    1
     8     1     2   ar
     9     2     3   ar
    10     3     4   ar
    11     4     5   ar
    12     5     6   ar
    13     6     7   ar
    14     7     8    1
    15     7     9   ar
    16     9    10   ar
    17    10    11   ar
    18    11    12    1
    19    18    19   ar
    20    19    14   ar
    21    11     1   ar
    22    10     4   ar
    23     8    13    1
@<TRIPOS>MOLECULE
*****
 21 23 0 0 0
SMALL
GASTEIGER

@<TRIPOS>ATOM
      1 C          62.6117   88.5348   11.5444 C.ar    1  UNL1        0.0122
      2 C          62.6015   87.0354   11.5850 C.ar    1  UNL1        0.0009
      3 C          61.7768   86.2639   10.5978 C.ar    1  UNL1        0.0001
      4 C          60.9624   86.9918    9.5697 C.ar    1  UNL1        0.0010
      5 C          60.1377   86.2204    8.5824 C.ar    1  UNL1        0.0031
      6 C          59.3233   86.9483    7.5545 C.ar    1  UNL1        0.0366
      7 C          59.3335   88.4477    7.5138 C.ar    1  UNL1        0.1337
      8 O          58.5190   89.1756    6.4857 O.3     1  UNL1       -0.5055
      9 C          60.1581   89.2192    8.5011 C.ar    1  UNL1        0.0375
     10 C          60.9726   88.4913    9.5290 C.ar    1  UNL1        0.0136
     11 C          61.7972   89.2627   10.5164 C.ar    1  UNL1        0.0578
     12 CL         61.8074   90.7621   10.4757 Cl      1  UNL1       -0.0822
     13 H          58.0039   88.6937    5.8690 H       1  UNL1        0.2922
     14 C          64.7176   91.4682   13.1906 C.ar    1  UNL1        0.1578
     15 C          65.0856   90.8491   14.5064 C.ar    1  UNL1        0.1356
     16 N          64.6290   89.4585   14.8348 N.ar    1  UNL1       -0.2391
     17 C          63.8044   88.6871   13.8475 C.ar    1  UNL1        0.0991
     18 C          63.4363   89.3063   12.5317 C.ar    1  UNL1        0.0230
     19 C          63.8929   90.6968   12.2033 C.ar    1  UNL1        0.0401
     20 C          66.4480   93.3886   13.4510 C.3     1  UNL1        0.2525
     21 O          65.1742   92.8588   12.8623 O.3     1  UNL1       -0.4699
@<TRIPOS>BOND
     1    20    21    1
     2    21    14    1
     3    14    15   ar
     4    15    16   ar
     5    16    17   ar
     6    17    18   ar
     7    18     1    1
     8     1     2   ar
     9     2     3   ar
    10     3     4   ar
    11     4     5   ar
    12     5     6   ar
    13     6     7   ar
    14     7     8    1
    15     7     9   ar
    16     9    10   ar
    17    10    11   ar
    18    11    12    1
    19    18    19   ar
    20    19    14   ar
    21    11     1   ar
    22    10     4   ar
    23     8    13    1
@<TRIPOS>MOLECULE
*****
 21 23 0 0 0
SMALL
GASTEIGER

@<TRIPOS>ATOM
      1 C          62.6351   85.5133   11.1159 C.ar    1  UNL1        0.0122
      2 C          62.0033   85.9165    9.8166 C.ar    1  UNL1        0.0009
      3 C          61.8102   87.3690    9.4954 C.ar    1  UNL1        0.0001
      4 C          62.2489   88.4182   10.4736 C.ar    1  UNL1        0.0010
      5 C          62.0559   89.8706   10.1524 C.ar    1  UNL1        0.0031
      6 C          62.4946   90.9197   11.1306 C.ar    1  UNL1        0.0366
      7 C          63.1263   90.5164   12.4299 C.ar    1  UNL1        0.1337
      8 O          63.5650   91.5656   13.4081 O.3     1  UNL1       -0.5055
      9 C          63.3194   89.0640   12.7511 C.ar    1  UNL1        0.0375
     10 C          62.8807   88.0149   11.7729 C.ar    1  UNL1        0.0136
     11 C          63.0737   86.5624   12.0941 C.ar    1  UNL1        0.0578
     12 CL         63.7055   86.1591   13.3934 Cl      1  UNL1       -0.0822
     13 H          63.4444   92.4729   13.2075 H       1  UNL1        0.2922
     14 C          62.4159   82.0284   13.0020 C.ar    1  UNL1        0.1578
     15 C          63.2142   81.1559   12.0792 C.ar    1  UNL1        0.1356
     16 N          63.8195   81.7359   10.8354 N.ar    1  UNL1       -0.2391
     17 C          63.6264   83.1883   10.5143 C.ar    1  UNL1        0.0991
     18 C          62.8281   84.0608   11.4371 C.ar    1  UNL1        0.0230
     19 C          62.2229   83.4808   12.6809 C.ar    1  UNL1        0.0401
     20 C          60.5330   80.6668   14.1643 C.3     1  UNL1        0.2525
     21 O          61.8107   81.4483   14.2459 O.3     1  UNL1       -0.4699
@<TRIPOS>BOND
     1    20    21    1
     2    21    14    1
     3    14    15   ar
     4    15    16   ar
     5    16    17   ar
     6    17    18   ar
     7    18     1    1
     8     1     2   ar
     9     2     3   ar
    10     3     4   ar
    11     4     5   ar
    12     5     6   ar
    13     6     7   ar
    14     7     8    1
    15     7     9   ar
    16     9    10   ar
    17    10    11   ar
    18    11    12    1
    19    18    19   ar
    20    19    14   ar
    21    11     1   ar
    22    10     4   ar
    23     8    13    1
@<TRIPOS>MOLECULE
*****
 21 23 0 0 0
SMALL
GASTEIGER

@<TRIPOS>ATOM
      1 C          62.5565   88.7973   11.7623 C.ar    1  UNL1        0.0122
      2 C          62.7795   87.3140   11.7587 C.ar    1  UNL1        0.0009
      3 C          62.1213   86.4591   10.7167 C.ar    1  UNL1        0.0001
      4 C          61.2399   87.0875    9.6782 C.ar    1  UNL1        0.0010
      5 C          60.5817   86.2327    8.6362 C.ar    1  UNL1        0.0031
      6 C          59.7004   86.8611    7.5978 C.ar    1  UNL1        0.0366
      7 C          59.4774   88.3444    7.6014 C.ar    1  UNL1        0.1337
      8 O          58.5960   88.9729    6.5629 O.3     1  UNL1       -0.5055
      9 C          60.1356   89.1993    8.6434 C.ar    1  UNL1        0.0375
     10 C          61.0169   88.5709    9.6818 C.ar    1  UNL1        0.0136
     11 C          61.6752   89.4257   10.7239 C.ar    1  UNL1        0.0578
     12 CL         61.4521   90.9091   10.7275 Cl      1  UNL1       -0.0822
     13 H          58.1848   88.4388    5.9120 H       1  UNL1        0.2922
     14 C          63.6716   90.2042   15.3017 C.ar    1  UNL1        0.1578
     15 C          64.5313   91.3619   14.8884 C.ar    1  UNL1        0.1356
     16 N          64.7327   91.6647   13.4332 N.ar    1  UNL1       -0.2391
     17 C          64.0744   90.8098   12.3912 C.ar    1  UNL1        0.0991
     18 C          63.2147   89.6522   12.8044 C.ar    1  UNL1        0.0230
     19 C          63.0133   89.3494   14.2596 C.ar    1  UNL1        0.0401
     20 C          63.0683   88.5219   17.1874 C.3     1  UNL1        0.2525
     21 O          63.4702   89.9015   16.7570 O.3     1  UNL1       -0.4699
@<TRIPOS>BOND
     1    20    21    1
     2    21    14    1
     3    14    15   ar
     4    15    16   ar
     5    16    17   ar
     6    17    18   ar
     7    18     1    1
     8     1     2   ar
     9     2     3   ar
    10     3     4   ar
    11     4     5   ar
    12     5     6   ar
    13     6     7   ar
    14     7     8    1
    15     7     9   ar
    16     9    10   ar
    17    10    11   ar
    18    11    12    1
    19    18    19   ar
    20    19    14   ar
    21    11     1   ar
    22    10     4   ar
    23     8    13    1
@<TRIPOS>MOLECULE
*****
 21 23 0 0 0
SMALL
GASTEIGER

@<TRIPOS>ATOM
      1 C          62.0165   85.7952    9.5654 C.ar    1  UNL1        0.0122
      2 C          62.8935   85.0012    8.6432 C.ar    1  UNL1        0.0009
      3 C          63.7520   83.8988    9.1888 C.ar    1  UNL1        0.0001
      4 C          63.7335   83.5904   10.6567 C.ar    1  UNL1        0.0010
      5 C          64.5919   82.4880   11.2023 C.ar    1  UNL1        0.0031
      6 C          64.5733   82.1795   12.6701 C.ar    1  UNL1        0.0366
      7 C          63.6963   82.9735   13.5922 C.ar    1  UNL1        0.1337
      8 O          63.6778   82.6650   15.0601 O.3     1  UNL1       -0.5055
      9 C          62.8378   84.0759   13.0466 C.ar    1  UNL1        0.0375
     10 C          62.8564   84.3843   11.5789 C.ar    1  UNL1        0.0136
     11 C          61.9979   85.4867   11.0332 C.ar    1  UNL1        0.0578
     12 CL         61.1209   86.2807   11.9554 Cl      1  UNL1       -0.0822
     13 H          64.2140   81.9763   15.4009 H       1  UNL1        0.2922
     14 C          60.1979   89.3044    9.2076 C.ar    1  UNL1        0.1578
     15 C          59.4411   89.1023    7.9283 C.ar    1  UNL1        0.1356
     16 N          59.5427   87.7979    7.1948 N.ar    1  UNL1       -0.2391
     17 C          60.4012   86.6956    7.7405 C.ar    1  UNL1        0.0991
     18 C          61.1580   86.8976    9.0197 C.ar    1  UNL1        0.0230
     19 C          61.0564   88.2020    9.7532 C.ar    1  UNL1        0.0401
     20 C          59.5803   90.6393   11.3492 C.3     1  UNL1        0.2525
     21 O          60.0962   90.6089    9.9411 O.3     1  UNL1       -0.4699
@<TRIPOS>BOND
     1    20    21    1
     2    21    14    1
     3    14    15   ar
     4    15    16   ar
     5    16    17   ar
     6    17    18   ar
     7    18     1    1
     8     1     2   ar
     9     2     3   ar
    10     3     4   ar
    11     4     5   ar
    12     5     6   ar
    13     6     7   ar
    14     7     8    1
    15     7     9   ar
    16     9    10   ar
    17    10    11   ar
    18    11    12    1
    19    18    19   ar
    20    19    14   ar
    21    11     1   ar
    22    10     4   ar
    23     8    13    1
@<TRIPOS>MOLECULE
*****
 21 23 0 0 0
SMALL
GASTEIGER

@<TRIPOS>ATOM
      1 C          61.9809   87.4937   10.8377 C.ar    1  UNL1        0.0122
      2 C          62.4398   88.8231   11.3592 C.ar    1  UNL1        0.0009
      3 C          63.2865   88.8922   12.5954 C.ar    1  UNL1        0.0001
      4 C          63.6744   87.6317   13.3102 C.ar    1  UNL1        0.0010
      5 C          64.5211   87.7008   14.5464 C.ar    1  UNL1        0.0031
      6 C          64.9089   86.4404   15.2612 C.ar    1  UNL1        0.0366
      7 C          64.4500   85.1109   14.7397 C.ar    1  UNL1        0.1337
      8 O          64.8379   83.8505   15.4545 O.3     1  UNL1       -0.5055
      9 C          63.6033   85.0419   13.5035 C.ar    1  UNL1        0.0375
     10 C          63.2155   86.3023   12.7888 C.ar    1  UNL1        0.0136
     11 C          62.3687   86.2332   11.5525 C.ar    1  UNL1        0.0578
     12 CL         61.9098   84.9038   11.0310 Cl      1  UNL1       -0.0822
     13 H          65.3668   83.8936   16.2268 H       1  UNL1        0.2922
     14 C          60.3209   86.1304    7.5007 C.ar    1  UNL1        0.1578
     15 C          59.4407   87.2867    7.1291 C.ar    1  UNL1        0.1356
     16 N          59.4071   88.5120    7.9936 N.ar    1  UNL1       -0.2391
     17 C          60.2539   88.5809    9.2298 C.ar    1  UNL1        0.0991
     18 C          61.1341   87.4246    9.6014 C.ar    1  UNL1        0.0230
     19 C          61.1677   86.1994    8.7369 C.ar    1  UNL1        0.0401
     20 C          61.6617   84.3995    6.1019 C.3     1  UNL1        0.2525
     21 O          60.3544   84.9051    6.6360 O.3     1  UNL1       -0.4699
@<TRIPOS>BOND
     1    20    21    1
     2    21    14    1
     3    14    15   ar
     4    15    16   ar
     5    16    17   ar
     6    17    18   ar
     7    18     1    1
     8     1     2   ar
     9     2     3   ar
    10     3     4   ar
    11     4     5   ar
    12     5     6   ar
    13     6     7   ar
    14     7     8    1
    15     7     9   ar
    16     9    10   ar
    17    10    11   ar
    18    11    12    1
    19    18    19   ar
    20    19    14   ar
    21    11     1   ar
    22    10     4   ar
    23     8    13    1
