@<TRIPOS>MOLECULE
*****
 35 39 0 0 0
SMALL
GASTEIGER

@<TRIPOS>ATOM
      1 C          64.6334   89.8095   14.9469 C.3     1  UNL1        0.0024
      2 C          64.0908   89.1034   13.7399 C.3     1  UNL1        0.0248
      3 C          64.3478   88.2012   14.9105 C.3     1  UNL1        0.0027
      4 C          64.0610   86.7329   14.8028 C.3     1  UNL1        0.0044
      5 C          63.5173   86.1666   13.5247 C.3     1  UNL1        0.0220
      6 C          63.2305   84.6981   13.4171 C.ar    1  UNL1       -0.0265
      7 C          63.4874   83.7961   14.5876 C.ar    1  UNL1       -0.0049
      8 C          63.2006   82.3277   14.4800 C.ar    1  UNL1       -0.0046
      9 C          62.6569   81.7614   13.2019 C.ar    1  UNL1       -0.0216
     10 C          62.3999   82.6635   12.0313 C.ar    1  UNL1       -0.0088
     11 C          62.6867   84.1318   12.1390 C.ar    1  UNL1       -0.0265
     12 C          62.4298   85.0340   10.9684 C.3     1  UNL1        0.0260
     13 C          62.7166   86.5023   11.0760 C.3     1  UNL1        0.0050
     14 C          63.2603   87.0686   12.3541 C.3     1  UNL1        0.0044
     15 C          63.5471   88.5371   12.4617 C.3     1  UNL1        0.0027
     16 C          63.3955   89.6636   11.4831 C.3     1  UNL1        0.0028
     17 C          63.8455   90.9262   12.1564 C.3     1  UNL1        0.0313
     18 C          64.2752   90.5799   13.5512 C.3     1  UNL1        0.1106
     19 O          64.7977   91.5415   14.5771 O.3     1  UNL1       -0.3845
     20 H          64.8179   92.4356   14.2016 H       1  UNL1        0.2103
     21 C          62.3701   80.2930   13.0943 C.3     1  UNL1        0.0386
     22 C          61.2509   79.6872   13.8883 C.3     1  UNL1        0.0723
     23 BR         60.0191   80.4912   14.1824 Br      1  UNL1       -0.0804
     24 C          63.8627   92.2948   11.5427 C.3     1  UNL1        0.0287
     25 C          65.1234   92.8246   10.9263 C.ar    1  UNL1       -0.0220
     26 C          66.3575   91.9725   10.8929 C.ar    1  UNL1       -0.0043
     27 C          67.6182   92.5022   10.2765 C.ar    1  UNL1       -0.0002
     28 C          67.6449   93.8840    9.6935 C.ar    1  UNL1        0.0045
     29 C          66.4109   94.7361    9.7269 C.ar    1  UNL1        0.0528
     30 C          65.1501   94.2064   10.3433 C.ar    1  UNL1        0.0002
     31 C          66.4376   96.1179    9.1439 C.2     1  UNL1        0.2427
     32 N          67.7481   96.7623    8.8016 N.am    1  UNL1       -0.3253
     33 O          65.1537   96.8553    8.9032 O.2     1  UNL1       -0.2704
     34 H          68.5908   96.2783    8.9595 H       1  UNL1        0.1453
     35 H          67.7656   97.6692    8.4189 H       1  UNL1        0.1453
@<TRIPOS>BOND
     1     2     1    1
     2     2     3    1
     3     3     4    1
     4     5     4    1
     5     5     6    1
     6     6     7   ar
     7     7     8   ar
     8     8     9   ar
     9     9    21    1
    10    21    22    1
    11    22    23    1
    12     9    10   ar
    13    10    11   ar
    14    11    12    1
    15    12    13    1
    16    14    13    1
    17    14    15    1
    18    15    16    1
    19    16    17    1
    20    17    24    1
    21    24    25    1
    22    25    26   ar
    23    26    27   ar
    24    27    28   ar
    25    28    29   ar
    26    29    31    1
    27    31    32   am
    28    31    33    2
    29    29    30   ar
    30    17    18    1
    31    18    19    1
    32    15     2    1
    33    30    25   ar
    34    18     2    1
    35    14     5    1
    36    11     6   ar
    37    32    34    1
    38    32    35    1
    39    19    20    1
@<TRIPOS>MOLECULE
*****
 35 39 0 0 0
SMALL
GASTEIGER

@<TRIPOS>ATOM
      1 C          62.7152   89.4133   11.7091 C.3     1  UNL1        0.0024
      2 C          63.1695   88.4474   12.7631 C.3     1  UNL1        0.0248
      3 C          62.6501   87.7919   11.5178 C.3     1  UNL1        0.0027
      4 C          62.6209   86.2958   11.4141 C.3     1  UNL1        0.0044
      5 C          63.1109   85.4551   12.5556 C.3     1  UNL1        0.0220
      6 C          63.0816   83.9590   12.4518 C.ar    1  UNL1       -0.0265
      7 C          62.5623   83.3036   11.2066 C.ar    1  UNL1       -0.0049
      8 C          62.5330   81.8075   11.1029 C.ar    1  UNL1       -0.0046
      9 C          63.0230   80.9668   12.2444 C.ar    1  UNL1       -0.0216
     10 C          63.5424   81.6222   13.4897 C.ar    1  UNL1       -0.0088
     11 C          63.5716   83.1183   13.5934 C.ar    1  UNL1       -0.0265
     12 C          64.0910   83.7738   14.8387 C.3     1  UNL1        0.0260
     13 C          64.1203   85.2699   14.9424 C.3     1  UNL1        0.0050
     14 C          63.6302   86.1105   13.8009 C.3     1  UNL1        0.0044
     15 C          63.6595   87.6067   13.9046 C.3     1  UNL1        0.0027
     16 C          64.1122   88.5283   14.9980 C.3     1  UNL1        0.0028
     17 C          63.9019   89.9386   14.5323 C.3     1  UNL1        0.0313
     18 C          63.3193   89.8885   13.1510 C.3     1  UNL1        0.1106
     19 O          62.9511   91.0720   12.3061 O.3     1  UNL1       -0.3845
     20 H          63.1478   91.8889   12.7906 H       1  UNL1        0.2103
     21 C          62.9937   79.4706   12.1407 C.3     1  UNL1        0.0386
     22 C          62.3991   78.8143   10.9301 C.3     1  UNL1        0.0723
     23 BR         63.0682   78.9564    9.5950 Br      1  UNL1       -0.0804
     24 C          64.2187   91.1808   15.3112 C.3     1  UNL1        0.0287
     25 C          65.5927   91.7786   15.2434 C.ar    1  UNL1       -0.0220
     26 C          66.1173   92.5852   16.3941 C.ar    1  UNL1       -0.0043
     27 C          67.4913   93.1830   16.3263 C.ar    1  UNL1       -0.0002
     28 C          68.3408   92.9743   15.1078 C.ar    1  UNL1        0.0045
     29 C          67.8162   92.1677   13.9570 C.ar    1  UNL1        0.0528
     30 C          66.4421   91.5699   14.0248 C.ar    1  UNL1        0.0002
     31 C          68.6656   91.9590   12.7385 C.2     1  UNL1        0.2427
     32 N          70.1183   91.6157   12.8866 N.am    1  UNL1       -0.3253
     33 O          68.0624   92.0936   11.3717 O.2     1  UNL1       -0.2704
     34 H          70.5142   91.5274   13.7837 H       1  UNL1        0.1453
     35 H          70.6758   91.4787   12.0869 H       1  UNL1        0.1453
@<TRIPOS>BOND
     1     2     1    1
     2     2     3    1
     3     3     4    1
     4     5     4    1
     5     5     6    1
     6     6     7   ar
     7     7     8   ar
     8     8     9   ar
     9     9    21    1
    10    21    22    1
    11    22    23    1
    12     9    10   ar
    13    10    11   ar
    14    11    12    1
    15    12    13    1
    16    14    13    1
    17    14    15    1
    18    15    16    1
    19    16    17    1
    20    17    24    1
    21    24    25    1
    22    25    26   ar
    23    26    27   ar
    24    27    28   ar
    25    28    29   ar
    26    29    31    1
    27    31    32   am
    28    31    33    2
    29    29    30   ar
    30    17    18    1
    31    18    19    1
    32    15     2    1
    33    30    25   ar
    34    18     2    1
    35    14     5    1
    36    11     6   ar
    37    32    34    1
    38    32    35    1
    39    19    20    1
@<TRIPOS>MOLECULE
*****
 35 39 0 0 0
SMALL
GASTEIGER

@<TRIPOS>ATOM
      1 C          60.2740   86.7599    9.9890 C.3     1  UNL1        0.0024
      2 C          60.9006   88.1159    9.8524 C.3     1  UNL1        0.0248
      3 C          61.3414   87.3599   11.0707 C.3     1  UNL1        0.0027
      4 C          62.3259   87.9759   12.0201 C.3     1  UNL1        0.0044
      5 C          62.8694   89.3479   11.7514 C.3     1  UNL1        0.0220
      6 C          63.8539   89.9638   12.7009 C.ar    1  UNL1       -0.0265
      7 C          64.2947   89.2078   13.9191 C.ar    1  UNL1       -0.0049
      8 C          65.2792   89.8238   14.8685 C.ar    1  UNL1       -0.0046
      9 C          65.8227   91.1958   14.5997 C.ar    1  UNL1       -0.0216
     10 C          65.3819   91.9518   13.3815 C.ar    1  UNL1       -0.0088
     11 C          64.3975   91.3358   12.4321 C.ar    1  UNL1       -0.0265
     12 C          63.9566   92.0918   11.2138 C.3     1  UNL1        0.0260
     13 C          62.9722   91.4758   10.2644 C.3     1  UNL1        0.0050
     14 C          62.4286   90.1039   10.5332 C.3     1  UNL1        0.0044
     15 C          61.4441   89.4879    9.5836 C.3     1  UNL1        0.0027
     16 C          60.8295   89.9887    8.3104 C.3     1  UNL1        0.0028
     17 C          59.9061   88.9263    7.7922 C.3     1  UNL1        0.0313
     18 C          59.9500   87.7689    8.7453 C.3     1  UNL1        0.1106
     19 O          59.1787   86.4890    8.6141 O.3     1  UNL1       -0.3845
     20 H          58.6377   86.5186    7.8095 H       1  UNL1        0.2103
     21 C          66.8072   91.8117   15.5492 C.3     1  UNL1        0.0386
     22 C          67.3790   93.1682   15.2613 C.3     1  UNL1        0.0723
     23 BR         68.7770   93.4998   15.6923 Br      1  UNL1       -0.0804
     24 C          59.0832   89.0072    6.5407 C.3     1  UNL1        0.0287
     25 C          59.2176   90.1914    5.6299 C.ar    1  UNL1       -0.0220
     26 C          58.0401   91.0887    5.3876 C.ar    1  UNL1       -0.0043
     27 C          58.1745   92.2729    4.4768 C.ar    1  UNL1       -0.0002
     28 C          59.4863   92.5599    3.8083 C.ar    1  UNL1        0.0045
     29 C          60.6637   91.6627    4.0506 C.ar    1  UNL1        0.0528
     30 C          60.5293   90.4784    4.9614 C.ar    1  UNL1        0.0002
     31 C          61.9754   91.9497    3.3821 C.2     1  UNL1        0.2427
     32 N          62.0515   92.9726    2.2876 N.am    1  UNL1       -0.3253
     33 O          63.2112   91.2139    3.8082 O.2     1  UNL1       -0.2704
     34 H          61.2404   93.4555    2.0080 H       1  UNL1        0.1453
     35 H          62.9125   93.1610    1.8489 H       1  UNL1        0.1453
@<TRIPOS>BOND
     1     2     1    1
     2     2     3    1
     3     3     4    1
     4     5     4    1
     5     5     6    1
     6     6     7   ar
     7     7     8   ar
     8     8     9   ar
     9     9    21    1
    10    21    22    1
    11    22    23    1
    12     9    10   ar
    13    10    11   ar
    14    11    12    1
    15    12    13    1
    16    14    13    1
    17    14    15    1
    18    15    16    1
    19    16    17    1
    20    17    24    1
    21    24    25    1
    22    25    26   ar
    23    26    27   ar
    24    27    28   ar
    25    28    29   ar
    26    29    31    1
    27    31    32   am
    28    31    33    2
    29    29    30   ar
    30    17    18    1
    31    18    19    1
    32    15     2    1
    33    30    25   ar
    34    18     2    1
    35    14     5    1
    36    11     6   ar
    37    32    34    1
    38    32    35    1
    39    19    20    1
@<TRIPOS>MOLECULE
*****
 35 39 0 0 0
SMALL
GASTEIGER

@<TRIPOS>ATOM
      1 C          62.2043   89.4897    9.9774 C.3     1  UNL1        0.0024
      2 C          62.8798   88.9717   11.2125 C.3     1  UNL1        0.0248
      3 C          62.1512   87.9203   10.4290 C.3     1  UNL1        0.0027
      4 C          62.1463   86.4982   10.9059 C.3     1  UNL1        0.0044
      5 C          62.8700   86.1274   12.1664 C.3     1  UNL1        0.0220
      6 C          62.8650   84.7052   12.6433 C.ar    1  UNL1       -0.0265
      7 C          62.1364   83.6539   11.8598 C.ar    1  UNL1       -0.0049
      8 C          62.1316   82.2318   12.3367 C.ar    1  UNL1       -0.0046
      9 C          62.8552   81.8610   13.5972 C.ar    1  UNL1       -0.0216
     10 C          63.5838   82.9122   14.3807 C.ar    1  UNL1       -0.0088
     11 C          63.5887   84.3343   13.9037 C.ar    1  UNL1       -0.0265
     12 C          64.3173   85.3857   14.6873 C.3     1  UNL1        0.0260
     13 C          64.3222   86.8078   14.2103 C.3     1  UNL1        0.0050
     14 C          63.5985   87.1787   12.9499 C.3     1  UNL1        0.0044
     15 C          63.6035   88.6009   12.4729 C.3     1  UNL1        0.0027
     16 C          64.2298   89.8444   13.0307 C.3     1  UNL1        0.0028
     17 C          63.8933   90.9838   12.1151 C.3     1  UNL1        0.0313
     18 C          63.0589   90.4444   10.9913 C.3     1  UNL1        0.1106
     19 O          62.5015   91.2384    9.8472 O.3     1  UNL1       -0.3845
     20 H          62.7633   92.1677    9.9408 H       1  UNL1        0.2103
     21 C          62.8503   80.4388   14.0741 C.3     1  UNL1        0.0386
     22 C          61.5813   79.6399   14.0377 C.3     1  UNL1        0.0723
     23 BR         60.2566   80.3296   14.1775 Br      1  UNL1       -0.0804
     24 C          64.3168   92.4118   12.2921 C.3     1  UNL1        0.0287
     25 C          65.4373   92.9698   11.4656 C.ar    1  UNL1       -0.0220
     26 C          66.7245   92.2104   11.3370 C.ar    1  UNL1       -0.0043
     27 C          67.8451   92.7683   10.5106 C.ar    1  UNL1       -0.0002
     28 C          67.6785   94.0856    9.8127 C.ar    1  UNL1        0.0045
     29 C          66.3913   94.8449    9.9413 C.ar    1  UNL1        0.0528
     30 C          65.2707   94.2870   10.7678 C.ar    1  UNL1        0.0002
     31 C          66.2247   96.1622    9.2434 C.2     1  UNL1        0.2427
     32 N          64.8653   96.7867    9.1347 N.am    1  UNL1       -0.3253
     33 O          67.4177   96.8550    8.6543 O.2     1  UNL1       -0.2704
     34 H          64.0824   96.3320    9.5213 H       1  UNL1        0.1453
     35 H          64.7560   97.6513    8.6766 H       1  UNL1        0.1453
@<TRIPOS>BOND
     1     2     1    1
     2     2     3    1
     3     3     4    1
     4     5     4    1
     5     5     6    1
     6     6     7   ar
     7     7     8   ar
     8     8     9   ar
     9     9    21    1
    10    21    22    1
    11    22    23    1
    12     9    10   ar
    13    10    11   ar
    14    11    12    1
    15    12    13    1
    16    14    13    1
    17    14    15    1
    18    15    16    1
    19    16    17    1
    20    17    24    1
    21    24    25    1
    22    25    26   ar
    23    26    27   ar
    24    27    28   ar
    25    28    29   ar
    26    29    31    1
    27    31    32   am
    28    31    33    2
    29    29    30   ar
    30    17    18    1
    31    18    19    1
    32    15     2    1
    33    30    25   ar
    34    18     2    1
    35    14     5    1
    36    11     6   ar
    37    32    34    1
    38    32    35    1
    39    19    20    1
@<TRIPOS>MOLECULE
*****
 35 39 0 0 0
SMALL
GASTEIGER

@<TRIPOS>ATOM
      1 C          64.2881   88.1945   15.3364 C.3     1  UNL1        0.0024
      2 C          63.8005   87.6523   14.0255 C.3     1  UNL1        0.0248
      3 C          64.1051   86.5969   15.0470 C.3     1  UNL1        0.0027
      4 C          63.9126   85.1482   14.7090 C.3     1  UNL1        0.0044
      5 C          63.4155   84.7549   13.3495 C.3     1  UNL1        0.0220
      6 C          63.2230   83.3062   13.0115 C.ar    1  UNL1       -0.0265
      7 C          63.5276   82.2508   14.0330 C.ar    1  UNL1       -0.0049
      8 C          63.3351   80.8022   13.6949 C.ar    1  UNL1       -0.0046
      9 C          62.8380   80.4089   12.3355 C.ar    1  UNL1       -0.0216
     10 C          62.5334   81.4642   11.3140 C.ar    1  UNL1       -0.0088
     11 C          62.7259   82.9129   11.6520 C.ar    1  UNL1       -0.0265
     12 C          62.4213   83.9683   10.6305 C.3     1  UNL1        0.0260
     13 C          62.6138   85.4170   10.9686 C.3     1  UNL1        0.0050
     14 C          63.1109   85.8103   12.3281 C.3     1  UNL1        0.0044
     15 C          63.3034   87.2590   12.6661 C.3     1  UNL1        0.0027
     16 C          63.0882   88.5124   11.8707 C.3     1  UNL1        0.0028
     17 C          63.4523   89.6803   12.7386 C.3     1  UNL1        0.0313
     18 C          63.8925   89.1487   14.0704 C.3     1  UNL1        0.1106
     19 O          64.3453   89.9696   15.2414 O.3     1  UNL1       -0.3845
     20 H          64.3117   90.9107   15.0088 H       1  UNL1        0.2103
     21 C          62.6455   78.9601   11.9975 C.3     1  UNL1        0.0386
     22 C          62.7395   78.5037   10.5717 C.3     1  UNL1        0.0723
     23 BR         63.1179   77.0857   10.2615 Br      1  UNL1       -0.0804
     24 C          63.3876   91.1261   12.3440 C.3     1  UNL1        0.0287
     25 C          64.6529   91.9075   12.1485 C.ar    1  UNL1       -0.0220
     26 C          64.9291   92.5704   10.8315 C.ar    1  UNL1       -0.0043
     27 C          66.1944   93.3518   10.6360 C.ar    1  UNL1       -0.0002
     28 C          67.1836   93.4704   11.7573 C.ar    1  UNL1        0.0045
     29 C          66.9075   92.8076   13.0742 C.ar    1  UNL1        0.0528
     30 C          65.6421   92.0261   13.2698 C.ar    1  UNL1        0.0002
     31 C          67.8966   92.9261   14.1956 C.2     1  UNL1        0.2427
     32 N          69.2654   92.3290   14.0546 N.am    1  UNL1       -0.3253
     33 O          67.5170   93.6419   15.4580 O.2     1  UNL1       -0.2704
     34 H          69.5145   91.8592   13.2261 H       1  UNL1        0.1453
     35 H          69.9146   92.4068   14.7906 H       1  UNL1        0.1453
@<TRIPOS>BOND
     1     2     1    1
     2     2     3    1
     3     3     4    1
     4     5     4    1
     5     5     6    1
     6     6     7   ar
     7     7     8   ar
     8     8     9   ar
     9     9    21    1
    10    21    22    1
    11    22    23    1
    12     9    10   ar
    13    10    11   ar
    14    11    12    1
    15    12    13    1
    16    14    13    1
    17    14    15    1
    18    15    16    1
    19    16    17    1
    20    17    24    1
    21    24    25    1
    22    25    26   ar
    23    26    27   ar
    24    27    28   ar
    25    28    29   ar
    26    29    31    1
    27    31    32   am
    28    31    33    2
    29    29    30   ar
    30    17    18    1
    31    18    19    1
    32    15     2    1
    33    30    25   ar
    34    18     2    1
    35    14     5    1
    36    11     6   ar
    37    32    34    1
    38    32    35    1
    39    19    20    1
@<TRIPOS>MOLECULE
*****
 35 39 0 0 0
SMALL
GASTEIGER

@<TRIPOS>ATOM
      1 C          62.8803   87.0640   17.5240 C.3     1  UNL1        0.0024
      2 C          63.1979   86.8820   16.0694 C.3     1  UNL1        0.0248
      3 C          62.7352   85.6301   16.7542 C.3     1  UNL1        0.0027
      4 C          62.6265   84.3490   15.9817 C.3     1  UNL1        0.0044
      5 C          62.9805   84.3196   14.5244 C.3     1  UNL1        0.0220
      6 C          62.8718   83.0383   13.7519 C.ar    1  UNL1       -0.0265
      7 C          62.4091   81.7866   14.4367 C.ar    1  UNL1       -0.0049
      8 C          62.3004   80.5054   13.6642 C.ar    1  UNL1       -0.0046
      9 C          62.6544   80.4760   12.2069 C.ar    1  UNL1       -0.0216
     10 C          63.1171   81.7278   11.5220 C.ar    1  UNL1       -0.0088
     11 C          63.2258   83.0089   12.2945 C.ar    1  UNL1       -0.0265
     12 C          63.6885   84.2607   11.6097 C.3     1  UNL1        0.0260
     13 C          63.7972   85.5419   12.3822 C.3     1  UNL1        0.0050
     14 C          63.4432   85.5713   13.8395 C.3     1  UNL1        0.0044
     15 C          63.5519   86.8525   14.6120 C.3     1  UNL1        0.0027
     16 C          63.9750   88.2342   14.2099 C.3     1  UNL1        0.0028
     17 C          63.8825   89.1176   15.4186 C.3     1  UNL1        0.0313
     18 C          63.4022   88.2818   16.5678 C.3     1  UNL1        0.1106
     19 O          63.1675   88.7617   17.9695 O.3     1  UNL1       -0.3845
     20 H          63.3749   89.7076   18.0264 H       1  UNL1        0.2103
     21 C          62.5457   79.1948   11.4344 C.3     1  UNL1        0.0386
     22 C          62.8187   79.1828    9.9595 C.3     1  UNL1        0.0723
     23 BR         63.5071   78.0061    9.3337 Br      1  UNL1       -0.0804
     24 C          64.2124   90.5800   15.4692 C.3     1  UNL1        0.0287
     25 C          65.1253   91.1789   14.4408 C.ar    1  UNL1       -0.0220
     26 C          66.5785   91.3799   14.7539 C.ar    1  UNL1       -0.0043
     27 C          67.4915   91.9788   13.7254 C.ar    1  UNL1       -0.0002
     28 C          66.9514   92.3768   12.3839 C.ar    1  UNL1        0.0045
     29 C          65.4983   92.1759   12.0707 C.ar    1  UNL1        0.0528
     30 C          64.5852   91.5770   13.0992 C.ar    1  UNL1        0.0002
     31 C          64.9581   92.5740   10.7292 C.2     1  UNL1        0.2427
     32 N          65.6391   93.6493    9.9355 N.am    1  UNL1       -0.3253
     33 O          63.7370   91.8966   10.1813 O.2     1  UNL1       -0.2704
     34 H          66.4405   94.0938   10.2950 H       1  UNL1        0.1453
     35 H          65.2845   93.9105    9.0549 H       1  UNL1        0.1453
@<TRIPOS>BOND
     1     2     1    1
     2     2     3    1
     3     3     4    1
     4     5     4    1
     5     5     6    1
     6     6     7   ar
     7     7     8   ar
     8     8     9   ar
     9     9    21    1
    10    21    22    1
    11    22    23    1
    12     9    10   ar
    13    10    11   ar
    14    11    12    1
    15    12    13    1
    16    14    13    1
    17    14    15    1
    18    15    16    1
    19    16    17    1
    20    17    24    1
    21    24    25    1
    22    25    26   ar
    23    26    27   ar
    24    27    28   ar
    25    28    29   ar
    26    29    31    1
    27    31    32   am
    28    31    33    2
    29    29    30   ar
    30    17    18    1
    31    18    19    1
    32    15     2    1
    33    30    25   ar
    34    18     2    1
    35    14     5    1
    36    11     6   ar
    37    32    34    1
    38    32    35    1
    39    19    20    1
@<TRIPOS>MOLECULE
*****
 35 39 0 0 0
SMALL
GASTEIGER

@<TRIPOS>ATOM
      1 C          57.6277   91.7304    4.7151 C.3     1  UNL1        0.0024
      2 C          59.0860   91.3971    4.6033 C.3     1  UNL1        0.0248
      3 C          58.6370   92.4890    3.6780 C.3     1  UNL1        0.0027
      4 C          59.6217   93.1400    2.7526 C.3     1  UNL1        0.0044
      5 C          61.0555   92.6992    2.7524 C.3     1  UNL1        0.0220
      6 C          62.0402   93.3503    1.8270 C.ar    1  UNL1       -0.0265
      7 C          61.5912   94.4421    0.9017 C.ar    1  UNL1       -0.0049
      8 C          62.5759   95.0932   -0.0237 C.ar    1  UNL1       -0.0046
      9 C          64.0097   94.6523   -0.0238 C.ar    1  UNL1       -0.0216
     10 C          64.4587   93.5604    0.9014 C.ar    1  UNL1       -0.0088
     11 C          63.4740   92.9094    1.8268 C.ar    1  UNL1       -0.0265
     12 C          63.9230   91.8175    2.7522 C.3     1  UNL1        0.0260
     13 C          62.9382   91.1665    3.6776 C.3     1  UNL1        0.0050
     14 C          61.5045   91.6073    3.6777 C.3     1  UNL1        0.0044
     15 C          60.5197   90.9562    4.6032 C.3     1  UNL1        0.0027
     16 C          60.6686   89.8630    5.6193 C.3     1  UNL1        0.0028
     17 C          59.3269   89.6282    6.2475 C.3     1  UNL1        0.0313
     18 C          58.3488   90.5763    5.6195 C.3     1  UNL1        0.1106
     19 O          56.8896   90.6846    5.9499 O.3     1  UNL1       -0.3845
     20 H          56.6659   90.0414    6.6406 H       1  UNL1        0.2103
     21 C          64.9944   95.3034   -0.9493 C.3     1  UNL1        0.0386
     22 C          64.5854   95.6636   -2.3467 C.3     1  UNL1        0.0723
     23 BR         64.2655   94.5830   -3.3367 Br      1  UNL1       -0.0804
     24 C          59.0176   88.6219    7.3160 C.3     1  UNL1        0.0287
     25 C          60.0541   88.2767    8.3438 C.ar    1  UNL1       -0.0220
     26 C          60.5688   86.8716    8.4474 C.ar    1  UNL1       -0.0043
     27 C          61.6053   86.5264    9.4752 C.ar    1  UNL1       -0.0002
     28 C          62.1271   87.5863   10.3995 C.ar    1  UNL1        0.0045
     29 C          61.6124   88.9914   10.2960 C.ar    1  UNL1        0.0528
     30 C          60.5759   89.3366    9.2681 C.ar    1  UNL1        0.0002
     31 C          62.1342   90.0513   11.2203 C.2     1  UNL1        0.2427
     32 N          61.8607   89.9636   12.6925 N.am    1  UNL1       -0.3253
     33 O          62.9296   91.1991   10.6723 O.2     1  UNL1       -0.2704
     34 H          61.3387   89.2103   13.0521 H       1  UNL1        0.1453
     35 H          62.2032   90.6592   13.2991 H       1  UNL1        0.1453
@<TRIPOS>BOND
     1     2     1    1
     2     2     3    1
     3     3     4    1
     4     5     4    1
     5     5     6    1
     6     6     7   ar
     7     7     8   ar
     8     8     9   ar
     9     9    21    1
    10    21    22    1
    11    22    23    1
    12     9    10   ar
    13    10    11   ar
    14    11    12    1
    15    12    13    1
    16    14    13    1
    17    14    15    1
    18    15    16    1
    19    16    17    1
    20    17    24    1
    21    24    25    1
    22    25    26   ar
    23    26    27   ar
    24    27    28   ar
    25    28    29   ar
    26    29    31    1
    27    31    32   am
    28    31    33    2
    29    29    30   ar
    30    17    18    1
    31    18    19    1
    32    15     2    1
    33    30    25   ar
    34    18     2    1
    35    14     5    1
    36    11     6   ar
    37    32    34    1
    38    32    35    1
    39    19    20    1
@<TRIPOS>MOLECULE
*****
 35 39 0 0 0
SMALL
GASTEIGER

@<TRIPOS>ATOM
      1 C          64.2555   87.6646   14.9697 C.3     1  UNL1        0.0024
      2 C          63.9264   88.3168   13.6596 C.3     1  UNL1        0.0248
      3 C          64.7705   89.1620   14.5670 C.3     1  UNL1        0.0027
      4 C          65.2061   90.5287   14.1286 C.3     1  UNL1        0.0044
      5 C          64.7976   91.0503   12.7828 C.3     1  UNL1        0.0220
      6 C          65.2332   92.4171   12.3444 C.ar    1  UNL1       -0.0265
      7 C          66.0773   93.2623   13.2518 C.ar    1  UNL1       -0.0049
      8 C          66.5129   94.6290   12.8134 C.ar    1  UNL1       -0.0046
      9 C          66.1044   95.1506   11.4676 C.ar    1  UNL1       -0.0216
     10 C          65.2603   94.3055   10.5603 C.ar    1  UNL1       -0.0088
     11 C          64.8248   92.9388   10.9987 C.ar    1  UNL1       -0.0265
     12 C          63.9807   92.0936   10.0913 C.3     1  UNL1        0.0260
     13 C          63.5451   90.7269   10.5297 C.3     1  UNL1        0.0050
     14 C          63.9536   90.2052   11.8755 C.3     1  UNL1        0.0044
     15 C          63.5179   88.8384   12.3139 C.3     1  UNL1        0.0027
     16 C          62.6891   87.7851   11.6406 C.3     1  UNL1        0.0028
     17 C          62.5853   86.6125   12.5701 C.3     1  UNL1        0.0313
     18 C          63.3500   86.9411   13.8180 C.3     1  UNL1        0.1106
     19 O          63.5102   86.0503   15.0142 O.3     1  UNL1       -0.3845
     20 H          63.0393   85.2161   14.8615 H       1  UNL1        0.2103
     21 C          66.5400   96.5174   11.0292 C.3     1  UNL1        0.0386
     22 C          67.2264   96.6979    9.7078 C.3     1  UNL1        0.0723
     23 BR         66.4146   96.8560    8.4563 Br      1  UNL1       -0.0804
     24 C          61.8465   85.3354   12.2994 C.3     1  UNL1        0.0287
     25 C          62.5611   84.1732   11.6761 C.ar    1  UNL1       -0.0220
     26 C          63.5255   84.4020   10.5502 C.ar    1  UNL1       -0.0043
     27 C          64.2401   83.2397    9.9269 C.ar    1  UNL1       -0.0002
     28 C          63.9904   81.8487   10.4296 C.ar    1  UNL1        0.0045
     29 C          63.0260   81.6199   11.5554 C.ar    1  UNL1        0.0528
     30 C          62.3113   82.7821   12.1787 C.ar    1  UNL1        0.0002
     31 C          62.7763   80.2288   12.0580 C.2     1  UNL1        0.2427
     32 N          62.5227   79.9929   13.5175 N.am    1  UNL1       -0.3253
     33 O          62.7802   79.0736   11.1011 O.2     1  UNL1       -0.2704
     34 H          62.5201   80.7511   14.1455 H       1  UNL1        0.1453
     35 H          62.3587   79.0799   13.8473 H       1  UNL1        0.1453
@<TRIPOS>BOND
     1     2     1    1
     2     2     3    1
     3     3     4    1
     4     5     4    1
     5     5     6    1
     6     6     7   ar
     7     7     8   ar
     8     8     9   ar
     9     9    21    1
    10    21    22    1
    11    22    23    1
    12     9    10   ar
    13    10    11   ar
    14    11    12    1
    15    12    13    1
    16    14    13    1
    17    14    15    1
    18    15    16    1
    19    16    17    1
    20    17    24    1
    21    24    25    1
    22    25    26   ar
    23    26    27   ar
    24    27    28   ar
    25    28    29   ar
    26    29    31    1
    27    31    32   am
    28    31    33    2
    29    29    30   ar
    30    17    18    1
    31    18    19    1
    32    15     2    1
    33    30    25   ar
    34    18     2    1
    35    14     5    1
    36    11     6   ar
    37    32    34    1
    38    32    35    1
    39    19    20    1
@<TRIPOS>MOLECULE
*****
 35 39 0 0 0
SMALL
GASTEIGER

@<TRIPOS>ATOM
      1 C          62.8923   85.4923   16.8107 C.3     1  UNL1        0.0024
      2 C          63.2448   85.4464   15.3535 C.3     1  UNL1        0.0248
      3 C          62.7601   84.1385   15.9056 C.3     1  UNL1        0.0027
      4 C          62.6650   82.9368   15.0130 C.3     1  UNL1        0.0044
      5 C          63.0546   83.0427   13.5684 C.3     1  UNL1        0.0220
      6 C          62.9595   81.8408   12.6759 C.ar    1  UNL1       -0.0265
      7 C          62.4749   80.5331   13.2280 C.ar    1  UNL1       -0.0049
      8 C          62.3798   79.3313   12.3354 C.ar    1  UNL1       -0.0046
      9 C          62.7694   79.4373   10.8908 C.ar    1  UNL1       -0.0216
     10 C          63.2541   80.7450   10.3387 C.ar    1  UNL1       -0.0088
     11 C          63.3492   81.9468   11.2312 C.ar    1  UNL1       -0.0265
     12 C          63.8339   83.2546   10.6791 C.3     1  UNL1        0.0260
     13 C          63.9289   84.4564   11.5716 C.3     1  UNL1        0.0050
     14 C          63.5393   84.3504   13.0163 C.3     1  UNL1        0.0044
     15 C          63.6344   85.5523   13.9088 C.3     1  UNL1        0.0027
     16 C          64.0731   86.9630   13.6493 C.3     1  UNL1        0.0028
     17 C          63.9547   87.7289   14.9336 C.3     1  UNL1        0.0313
     18 C          63.4428   86.7915   15.9868 C.3     1  UNL1        0.1106
     19 O          63.1757   87.1386   17.4214 O.3     1  UNL1       -0.3845
     20 H          63.3856   88.0735   17.5724 H       1  UNL1        0.2103
     21 C          62.6743   78.2354    9.9983 C.3     1  UNL1        0.0386
     22 C          63.4498   76.9942   10.3266 C.3     1  UNL1        0.0723
     23 BR         64.4447   76.4497    9.3448 Br      1  UNL1       -0.0804
     24 C          64.2894   89.1778   15.1301 C.3     1  UNL1        0.0287
     25 C          64.3329   90.1041   13.9512 C.ar    1  UNL1       -0.0220
     26 C          63.4119   89.8818   12.7882 C.ar    1  UNL1       -0.0043
     27 C          63.4554   90.8081   11.6093 C.ar    1  UNL1       -0.0002
     28 C          64.4198   91.9568   11.5932 C.ar    1  UNL1        0.0045
     29 C          65.3408   92.1792   12.7560 C.ar    1  UNL1        0.0528
     30 C          65.2974   91.2529   13.9351 C.ar    1  UNL1        0.0002
     31 C          66.3053   93.3279   12.7399 C.2     1  UNL1        0.2427
     32 N          65.9981   94.5538   11.9320 N.am    1  UNL1       -0.3253
     33 O          67.5769   93.2507   13.5318 O.2     1  UNL1       -0.2704
     34 H          65.1635   94.6045   11.4123 H       1  UNL1        0.1453
     35 H          66.6311   95.3078   11.9215 H       1  UNL1        0.1453
@<TRIPOS>BOND
     1     2     1    1
     2     2     3    1
     3     3     4    1
     4     5     4    1
     5     5     6    1
     6     6     7   ar
     7     7     8   ar
     8     8     9   ar
     9     9    21    1
    10    21    22    1
    11    22    23    1
    12     9    10   ar
    13    10    11   ar
    14    11    12    1
    15    12    13    1
    16    14    13    1
    17    14    15    1
    18    15    16    1
    19    16    17    1
    20    17    24    1
    21    24    25    1
    22    25    26   ar
    23    26    27   ar
    24    27    28   ar
    25    28    29   ar
    26    29    31    1
    27    31    32   am
    28    31    33    2
    29    29    30   ar
    30    17    18    1
    31    18    19    1
    32    15     2    1
    33    30    25   ar
    34    18     2    1
    35    14     5    1
    36    11     6   ar
    37    32    34    1
    38    32    35    1
    39    19    20    1
