@<TRIPOS>MOLECULE
*****
 36 38 0 0 0
SMALL
GASTEIGER

@<TRIPOS>ATOM
      1 N          61.2668   86.4796   11.1835 N.am    1  UNL1       -0.2560
      2 C          60.8586   86.0024    9.8213 C.3     1  UNL1        0.1394
      3 C          60.7158   87.2027    8.9331 C.ar    1  UNL1        0.0662
      4 C          60.3753   87.6496    7.5423 C.ar    1  UNL1        0.0247
      5 C          60.4848   89.1449    7.4961 C.ar    1  UNL1        0.0614
      6 C          60.8930   89.6221    8.8583 C.ar    1  UNL1        0.0922
      7 N          61.0357   88.4218    9.7465 N.ar    1  UNL1       -0.2624
      8 C          61.3762   87.9749   11.1373 C.2     1  UNL1        0.3234
      9 O          61.7590   88.8667   12.2810 O.2     1  UNL1       -0.2490
     10 C          60.2307   90.0109    6.2980 C.1     1  UNL1       -0.0497
     11 C          59.9767   90.8769    5.0999 C.1     1  UNL1       -0.0095
     12 C          59.7225   91.7430    3.9018 C.1     1  UNL1       -0.0138
     13 C          59.4684   92.6090    2.7037 C.1     1  UNL1       -0.0788
     14 C          59.2143   93.4750    1.5057 C.3     1  UNL1        0.0676
     15 C          59.3778   94.7832    0.7902 C.3     1  UNL1        0.0165
     16 C          58.6106   93.6669    0.1459 C.3     1  UNL1        0.0424
     17 C          57.8192   93.1331   -1.0111 C.3     1  UNL1        0.1406
     18 O          58.3053   91.9277   -1.7598 O.3     1  UNL1       -0.3819
     19 H          57.6818   91.7164   -2.4722 H       1  UNL1        0.2104
     20 C          56.5415   93.8047   -1.4193 C.3     1  UNL1        0.1663
     21 O          55.2921   92.9942   -1.5985 O.3     1  UNL1       -0.3795
     22 H          55.4041   92.3889   -2.3482 H       1  UNL1        0.2105
     23 C          61.5208   85.6136   12.3816 C.3     1  UNL1        0.0977
     24 C          62.8885   85.0455   12.6200 C.3     1  UNL1        0.0524
     25 C          63.2758   82.8672   14.6460 C.3     1  UNL1        0.0331
     26 C          63.0822   83.9564   13.6329 C.3     1  UNL1        0.1820
     27 C          62.9853   84.9665   14.7376 C.2     1  UNL1        0.2640
     28 O          63.9135   86.1446   14.7601 O.2     1  UNL1       -0.2713
     29 N          61.9602   84.7986   15.8197 N.am    1  UNL1       -0.1956
     30 O          61.8634   85.8088   16.9243 O.3     1  UNL1       -0.2951
     31 H          61.3510   84.0254   15.8049 H       1  UNL1        0.1823
     32 H          62.5300   86.5003   16.7894 H       1  UNL1        0.2414
     33 S          63.1790   82.9462   12.5284 S.O2    1  UNL1       -0.0034
     34 C          63.2758   81.9359   11.4239 C.3     1  UNL1        0.1765
     35 O          62.0560   82.1653   13.1442 O.2     1  UNL1       -0.1726
     36 O          64.3020   83.7270   11.9127 O.2     1  UNL1       -0.1726
@<TRIPOS>BOND
     1    26    25    1
     2    26    24    1
     3    24    23    1
     4    23     1    1
     5     1     2    1
     6     2     3    1
     7     3     4   ar
     8     4     5   ar
     9     5    10    1
    10    10    11    3
    11    11    12    1
    12    12    13    3
    13    14    13    1
    14    14    15    1
    15    16    15    1
    16    16    17    1
    17    17    18    1
    18    17    20    1
    19    20    21    1
    20     5     6   ar
    21     6     7   ar
    22     7     8   am
    23     8     9    2
    24    26    27    1
    25    27    28    2
    26    27    29   am
    27    29    30    1
    28    26    33    1
    29    33    34    1
    30    33    35    2
    31    33    36    2
    32     8     1   am
    33     7     3   ar
    34    16    14    1
    35    18    19    1
    36    21    22    1
    37    29    31    1
    38    30    32    1
@<TRIPOS>MOLECULE
*****
 36 38 0 0 0
SMALL
GASTEIGER

@<TRIPOS>ATOM
      1 N          61.4445   86.4492   11.3146 N.am    1  UNL1       -0.2560
      2 C          60.9375   85.9690    9.9870 C.3     1  UNL1        0.1394
      3 C          60.8007   87.1594    9.0848 C.ar    1  UNL1        0.0662
      4 C          60.4029   87.5983    7.7067 C.ar    1  UNL1        0.0247
      5 C          60.5795   89.0856    7.6249 C.ar    1  UNL1        0.0614
      6 C          61.0866   89.5659    8.9524 C.ar    1  UNL1        0.0922
      7 N          61.2233   88.3755    9.8546 N.ar    1  UNL1       -0.2624
      8 C          61.6211   87.9366   11.2327 C.2     1  UNL1        0.3234
      9 O          62.1098   88.8285   12.3354 O.2     1  UNL1       -0.2490
     10 C          60.2985   89.9422    6.4260 C.1     1  UNL1       -0.0497
     11 C          60.0175   90.7989    5.2272 C.1     1  UNL1       -0.0095
     12 C          59.7365   91.6554    4.0282 C.1     1  UNL1       -0.0138
     13 C          59.4556   92.5120    2.8294 C.1     1  UNL1       -0.0788
     14 C          59.1747   93.3686    1.6305 C.3     1  UNL1        0.0676
     15 C          59.3962   94.6353    0.8584 C.3     1  UNL1        0.0165
     16 C          58.4665   93.5856    0.3261 C.3     1  UNL1        0.0424
     17 C          57.5207   93.1046   -0.7342 C.3     1  UNL1        0.1406
     18 O          57.5260   91.6622   -1.1457 O.3     1  UNL1       -0.3819
     19 H          56.8595   91.5204   -1.8360 H       1  UNL1        0.2104
     20 C          56.5697   94.0662   -1.3832 C.3     1  UNL1        0.1663
     21 O          55.1276   93.6922   -1.5577 O.3     1  UNL1       -0.3795
     22 H          55.0588   92.9511   -2.1797 H       1  UNL1        0.2105
     23 C          61.7255   85.5927   12.5134 C.3     1  UNL1        0.0977
     24 C          63.1392   85.2351   12.8650 C.3     1  UNL1        0.0524
     25 C          63.7088   82.7530   14.4506 C.3     1  UNL1        0.0331
     26 C          63.4240   83.9941   13.6578 C.3     1  UNL1        0.1820
     27 C          63.4927   83.1986   12.3879 C.2     1  UNL1        0.2640
     28 O          62.4171   82.2037   12.0670 O.2     1  UNL1       -0.2713
     29 N          64.6372   83.3981   11.4390 N.am    1  UNL1       -0.1956
     30 O          64.7059   82.6026   10.1692 O.3     1  UNL1       -0.2951
     31 H          65.3432   84.0511   11.6496 H       1  UNL1        0.1823
     32 H          63.9393   82.0107   10.1165 H       1  UNL1        0.2414
     33 S          63.3553   84.7895   14.9276 S.O2    1  UNL1       -0.0034
     34 C          63.2866   85.5849   16.1975 C.3     1  UNL1        0.1765
     35 O          64.3522   85.7628   14.3719 O.2     1  UNL1       -0.1726
     36 O          62.3584   83.8162   15.4833 O.2     1  UNL1       -0.1726
@<TRIPOS>BOND
     1    26    25    1
     2    26    24    1
     3    24    23    1
     4    23     1    1
     5     1     2    1
     6     2     3    1
     7     3     4   ar
     8     4     5   ar
     9     5    10    1
    10    10    11    3
    11    11    12    1
    12    12    13    3
    13    14    13    1
    14    14    15    1
    15    16    15    1
    16    16    17    1
    17    17    18    1
    18    17    20    1
    19    20    21    1
    20     5     6   ar
    21     6     7   ar
    22     7     8   am
    23     8     9    2
    24    26    27    1
    25    27    28    2
    26    27    29   am
    27    29    30    1
    28    26    33    1
    29    33    34    1
    30    33    35    2
    31    33    36    2
    32     8     1   am
    33     7     3   ar
    34    16    14    1
    35    18    19    1
    36    21    22    1
    37    29    31    1
    38    30    32    1
@<TRIPOS>MOLECULE
*****
 36 38 0 0 0
SMALL
GASTEIGER

@<TRIPOS>ATOM
      1 N          61.4656   95.7448   -1.3048 N.am    1  UNL1       -0.2560
      2 C          60.5181   94.5822   -1.2780 C.3     1  UNL1        0.1394
      3 C          60.5937   93.9538    0.0820 C.ar    1  UNL1        0.0662
      4 C          60.0548   92.8469    0.9389 C.ar    1  UNL1        0.0247
      5 C          60.7159   92.9371    2.2824 C.ar    1  UNL1        0.0614
      6 C          61.6634   94.0997    2.2557 C.ar    1  UNL1        0.0922
      7 N          61.5878   94.7280    0.8957 N.ar    1  UNL1       -0.2624
      8 C          62.1267   95.8349    0.0387 C.2     1  UNL1        0.3234
      9 O          63.1475   96.8532    0.4525 O.2     1  UNL1       -0.2490
     10 C          60.4724   92.0248    3.4479 C.1     1  UNL1       -0.0497
     11 C          60.2288   91.1125    4.6134 C.1     1  UNL1       -0.0095
     12 C          59.9853   90.2002    5.7790 C.1     1  UNL1       -0.0138
     13 C          59.7418   89.2880    6.9445 C.1     1  UNL1       -0.0788
     14 C          59.4983   88.3757    8.1100 C.3     1  UNL1        0.0676
     15 C          58.7968   87.1933    8.7097 C.3     1  UNL1        0.0165
     16 C          59.7780   87.9780    9.5291 C.3     1  UNL1        0.0424
     17 C          60.5059   88.2016   10.8214 C.3     1  UNL1        0.1406
     18 O          61.1564   87.0477   11.5252 O.3     1  UNL1       -0.3819
     19 H          61.5801   87.3625   12.3389 H       1  UNL1        0.2104
     20 C          60.5835   89.5792   11.4099 C.3     1  UNL1        0.1663
     21 O          60.3510   89.7819   12.8779 O.3     1  UNL1       -0.3795
     22 H          59.4301   89.5654   13.0922 H       1  UNL1        0.2105
     23 C          61.7091   96.6570   -2.4702 C.3     1  UNL1        0.0977
     24 C          63.0422   96.6557   -3.1580 C.3     1  UNL1        0.0524
     25 C          64.0855   94.1333   -4.4025 C.3     1  UNL1        0.0331
     26 C          63.5638   95.3946   -3.7802 C.3     1  UNL1        0.1820
     27 C          64.3529   95.1076   -2.5372 C.2     1  UNL1        0.2640
     28 O          65.3089   96.1322   -2.0025 O.2     1  UNL1       -0.2713
     29 N          64.1858   93.7959   -1.8290 N.am    1  UNL1       -0.1956
     30 O          64.9749   93.5089   -0.5860 O.3     1  UNL1       -0.2951
     31 H          63.5583   93.1234   -2.1800 H       1  UNL1        0.1823
     32 H          65.5403   94.2694   -0.3791 H       1  UNL1        0.2414
     33 S          62.7749   95.6814   -5.0233 S.O2    1  UNL1       -0.0034
     34 C          61.9860   95.9684   -6.2663 C.3     1  UNL1        0.1765
     35 O          63.6613   96.8559   -5.3148 O.2     1  UNL1       -0.1726
     36 O          61.8885   94.5071   -4.7318 O.2     1  UNL1       -0.1726
@<TRIPOS>BOND
     1    26    25    1
     2    26    24    1
     3    24    23    1
     4    23     1    1
     5     1     2    1
     6     2     3    1
     7     3     4   ar
     8     4     5   ar
     9     5    10    1
    10    10    11    3
    11    11    12    1
    12    12    13    3
    13    14    13    1
    14    14    15    1
    15    16    15    1
    16    16    17    1
    17    17    18    1
    18    17    20    1
    19    20    21    1
    20     5     6   ar
    21     6     7   ar
    22     7     8   am
    23     8     9    2
    24    26    27    1
    25    27    28    2
    26    27    29   am
    27    29    30    1
    28    26    33    1
    29    33    34    1
    30    33    35    2
    31    33    36    2
    32     8     1   am
    33     7     3   ar
    34    16    14    1
    35    18    19    1
    36    21    22    1
    37    29    31    1
    38    30    32    1
@<TRIPOS>MOLECULE
*****
 36 38 0 0 0
SMALL
GASTEIGER

@<TRIPOS>ATOM
      1 N          64.1280   84.0280   12.7889 N.am    1  UNL1       -0.2560
      2 C          63.7966   83.6978   11.3637 C.3     1  UNL1        0.1394
      3 C          63.0908   84.8788   10.7662 C.ar    1  UNL1        0.0662
      4 C          62.4498   85.4045    9.5161 C.ar    1  UNL1        0.0247
      5 C          61.9488   86.7897    9.7994 C.ar    1  UNL1        0.0614
      6 C          62.2801   87.1200   11.2246 C.ar    1  UNL1        0.0922
      7 N          62.9860   85.9390   11.8221 N.ar    1  UNL1       -0.2624
      8 C          63.6269   85.4133   13.0722 C.2     1  UNL1        0.3234
      9 O          63.7460   86.1443   14.3765 O.2     1  UNL1       -0.2490
     10 C          61.2408   87.6870    8.8281 C.1     1  UNL1       -0.0497
     11 C          60.5327   88.5844    7.8568 C.1     1  UNL1       -0.0095
     12 C          59.8247   89.4818    6.8854 C.1     1  UNL1       -0.0138
     13 C          59.1168   90.3792    5.9140 C.1     1  UNL1       -0.0788
     14 C          58.4089   91.2765    4.9427 C.3     1  UNL1        0.0676
     15 C          57.1602   91.9745    4.4916 C.3     1  UNL1        0.0165
     16 C          58.4313   92.1328    3.7113 C.3     1  UNL1        0.0424
     17 C          59.1783   92.7185    2.5499 C.3     1  UNL1        0.1406
     18 O          58.5582   92.7218    1.1841 O.3     1  UNL1       -0.3819
     19 H          59.1687   93.1337    0.5528 H       1  UNL1        0.2104
     20 C          60.5455   93.3010    2.7543 C.3     1  UNL1        0.1663
     21 O          61.7210   92.3959    2.9751 O.3     1  UNL1       -0.3795
     22 H          61.6157   91.9291    3.8189 H       1  UNL1        0.2105
     23 C          64.8360   83.1308   13.7601 C.3     1  UNL1        0.0977
     24 C          64.1359   81.9262   14.3161 C.3     1  UNL1        0.0524
     25 C          61.1401   81.8671   14.4626 C.3     1  UNL1        0.0331
     26 C          62.6380   81.8966   14.3893 C.3     1  UNL1        0.1820
     27 C          62.6597   83.0796   15.3114 C.2     1  UNL1        0.2640
     28 O          63.7472   83.2120   16.3360 O.2     1  UNL1       -0.2713
     29 N          61.5940   84.1301   15.2088 N.am    1  UNL1       -0.1956
     30 O          61.6156   85.3130   16.1309 O.3     1  UNL1       -0.2951
     31 H          60.8802   84.0431   14.5363 H       1  UNL1        0.1823
     32 H          62.3783   85.2449   16.7264 H       1  UNL1        0.2414
     33 S          62.6162   80.7137   13.4673 S.O2    1  UNL1       -0.0034
     34 C          62.5945   79.5307   12.5454 C.3     1  UNL1        0.1765
     35 O          63.5428   79.9779   14.3894 O.2     1  UNL1       -0.1726
     36 O          61.6898   81.4494   12.5453 O.2     1  UNL1       -0.1726
@<TRIPOS>BOND
     1    26    25    1
     2    26    24    1
     3    24    23    1
     4    23     1    1
     5     1     2    1
     6     2     3    1
     7     3     4   ar
     8     4     5   ar
     9     5    10    1
    10    10    11    3
    11    11    12    1
    12    12    13    3
    13    14    13    1
    14    14    15    1
    15    16    15    1
    16    16    17    1
    17    17    18    1
    18    17    20    1
    19    20    21    1
    20     5     6   ar
    21     6     7   ar
    22     7     8   am
    23     8     9    2
    24    26    27    1
    25    27    28    2
    26    27    29   am
    27    29    30    1
    28    26    33    1
    29    33    34    1
    30    33    35    2
    31    33    36    2
    32     8     1   am
    33     7     3   ar
    34    16    14    1
    35    18    19    1
    36    21    22    1
    37    29    31    1
    38    30    32    1
@<TRIPOS>MOLECULE
*****
 36 38 0 0 0
SMALL
GASTEIGER

@<TRIPOS>ATOM
      1 N          60.6756   95.8471   -2.0858 N.am    1  UNL1       -0.2560
      2 C          60.0525   96.2520   -0.7828 C.3     1  UNL1        0.1394
      3 C          60.1356   95.0834    0.1538 C.ar    1  UNL1        0.0662
      4 C          59.8019   94.6114    1.5380 C.ar    1  UNL1        0.0247
      5 C          60.2702   93.1924    1.6693 C.ar    1  UNL1        0.0614
      6 C          60.8933   92.7874    0.3664 C.ar    1  UNL1        0.0922
      7 N          60.8101   93.9561   -0.5703 N.ar    1  UNL1       -0.2624
      8 C          61.1439   94.4281   -1.9544 C.2     1  UNL1        0.3234
      9 O          61.8261   93.6225   -3.0201 O.2     1  UNL1       -0.2490
     10 C          60.1384   92.3299    2.8894 C.1     1  UNL1       -0.0497
     11 C          60.0067   91.4673    4.1095 C.1     1  UNL1       -0.0095
     12 C          59.8749   90.6048    5.3297 C.1     1  UNL1       -0.0138
     13 C          59.7431   89.7423    6.5498 C.1     1  UNL1       -0.0788
     14 C          59.6113   88.8799    7.7699 C.3     1  UNL1        0.0676
     15 C          59.0588   87.6593    8.4444 C.3     1  UNL1        0.0165
     16 C          59.9354   88.6066    9.2088 C.3     1  UNL1        0.0424
     17 C          60.6286   88.9957   10.4808 C.3     1  UNL1        0.1406
     18 O          60.4262   88.1820   11.7245 O.3     1  UNL1       -0.3819
     19 H          60.9419   88.5670   12.4503 H       1  UNL1        0.2104
     20 C          61.5243   90.1987   10.5090 C.3     1  UNL1        0.1663
     21 O          61.7829   90.9110   11.8035 O.3     1  UNL1       -0.3795
     22 H          60.9596   91.3142   12.1207 H       1  UNL1        0.2105
     23 C          60.8073   96.7096   -3.3058 C.3     1  UNL1        0.0977
     24 C          59.6878   96.7758   -4.3020 C.3     1  UNL1        0.0524
     25 C          58.9765   94.3535   -5.9225 C.3     1  UNL1        0.0331
     26 C          59.3321   95.5647   -5.1122 C.3     1  UNL1        0.1820
     27 C          60.6490   95.6546   -5.8248 C.2     1  UNL1        0.2640
     28 O          60.9664   96.8556   -6.6655 O.2     1  UNL1       -0.2713
     29 N          61.6485   94.5435   -5.6966 N.am    1  UNL1       -0.1956
     30 O          62.9654   94.6334   -6.4092 O.3     1  UNL1       -0.2951
     31 H          61.4402   93.7553   -5.1448 H       1  UNL1        0.1823
     32 H          63.0091   95.4667   -6.9039 H       1  UNL1        0.2414
     33 S          58.0153   95.4747   -4.3997 S.O2    1  UNL1       -0.0034
     34 C          56.6983   95.3848   -3.6872 C.3     1  UNL1        0.1765
     35 O          57.6633   96.8528   -4.8762 O.2     1  UNL1       -0.1726
     36 O          58.3671   94.0967   -3.9233 O.2     1  UNL1       -0.1726
@<TRIPOS>BOND
     1    26    25    1
     2    26    24    1
     3    24    23    1
     4    23     1    1
     5     1     2    1
     6     2     3    1
     7     3     4   ar
     8     4     5   ar
     9     5    10    1
    10    10    11    3
    11    11    12    1
    12    12    13    3
    13    14    13    1
    14    14    15    1
    15    16    15    1
    16    16    17    1
    17    17    18    1
    18    17    20    1
    19    20    21    1
    20     5     6   ar
    21     6     7   ar
    22     7     8   am
    23     8     9    2
    24    26    27    1
    25    27    28    2
    26    27    29   am
    27    29    30    1
    28    26    33    1
    29    33    34    1
    30    33    35    2
    31    33    36    2
    32     8     1   am
    33     7     3   ar
    34    16    14    1
    35    18    19    1
    36    21    22    1
    37    29    31    1
    38    30    32    1
@<TRIPOS>MOLECULE
*****
 36 38 0 0 0
SMALL
GASTEIGER

@<TRIPOS>ATOM
      1 N          61.2940   86.4835   11.2046 N.am    1  UNL1       -0.2560
      2 C          60.8621   85.9988    9.8523 C.3     1  UNL1        0.1394
      3 C          60.7136   87.1934    8.9573 C.ar    1  UNL1        0.0662
      4 C          60.3549   87.6321    7.5685 C.ar    1  UNL1        0.0247
      5 C          60.4733   89.1262    7.5093 C.ar    1  UNL1        0.0614
      6 C          60.9052   89.6110    8.8615 C.ar    1  UNL1        0.0922
      7 N          61.0537   88.4164    9.7565 N.ar    1  UNL1       -0.2624
      8 C          61.4124   87.9777   11.1453 C.2     1  UNL1        0.3234
      9 O          61.8183   88.8755   12.2763 O.2     1  UNL1       -0.2490
     10 C          60.2067   89.9849    6.3086 C.1     1  UNL1       -0.0497
     11 C          59.9401   90.8436    5.1080 C.1     1  UNL1       -0.0095
     12 C          59.6734   91.7023    3.9073 C.1     1  UNL1       -0.0138
     13 C          59.4066   92.5611    2.7067 C.1     1  UNL1       -0.0788
     14 C          59.1399   93.4198    1.5062 C.3     1  UNL1        0.0676
     15 C          58.4836   93.6202    0.1724 C.3     1  UNL1        0.0165
     16 C          59.3341   94.7068    0.7605 C.3     1  UNL1        0.0424
     17 C          59.9372   96.0772    0.6697 C.3     1  UNL1        0.1406
     18 O          59.8907   96.8328   -0.6253 O.3     1  UNL1       -0.3819
     19 H          60.3216   97.6944   -0.5125 H       1  UNL1        0.2104
     20 C          60.5870   96.6920    1.8739 C.3     1  UNL1        0.1663
     21 O          62.0819   96.7014    1.9967 O.3     1  UNL1       -0.3795
     22 H          62.4048   95.7910    2.0851 H       1  UNL1        0.2105
     23 C          61.5606   85.6249   12.4052 C.3     1  UNL1        0.0977
     24 C          62.9251   85.0403   12.6212 C.3     1  UNL1        0.0524
     25 C          63.3174   82.8504   14.6336 C.3     1  UNL1        0.0331
     26 C          63.1213   83.9454   13.6273 C.3     1  UNL1        0.1820
     27 C          62.9863   84.9430   14.7393 C.2     1  UNL1        0.2640
     28 O          63.9106   86.1225   14.8050 O.2     1  UNL1       -0.2713
     29 N          61.9270   84.7610   15.7857 N.am    1  UNL1       -0.1956
     30 O          61.7921   85.7586   16.8977 O.3     1  UNL1       -0.2951
     31 H          61.3204   83.9868   15.7426 H       1  UNL1        0.1823
     32 H          62.4612   86.4529   16.7922 H       1  UNL1        0.2414
     33 S          63.2562   82.9477   12.5154 S.O2    1  UNL1       -0.0034
     34 C          63.3911   81.9500   11.4035 C.3     1  UNL1        0.1765
     35 O          62.1180   82.1559   13.0877 O.2     1  UNL1       -0.1726
     36 O          64.3944   83.7394   11.9431 O.2     1  UNL1       -0.1726
@<TRIPOS>BOND
     1    26    25    1
     2    26    24    1
     3    24    23    1
     4    23     1    1
     5     1     2    1
     6     2     3    1
     7     3     4   ar
     8     4     5   ar
     9     5    10    1
    10    10    11    3
    11    11    12    1
    12    12    13    3
    13    14    13    1
    14    14    15    1
    15    16    15    1
    16    16    17    1
    17    17    18    1
    18    17    20    1
    19    20    21    1
    20     5     6   ar
    21     6     7   ar
    22     7     8   am
    23     8     9    2
    24    26    27    1
    25    27    28    2
    26    27    29   am
    27    29    30    1
    28    26    33    1
    29    33    34    1
    30    33    35    2
    31    33    36    2
    32     8     1   am
    33     7     3   ar
    34    16    14    1
    35    18    19    1
    36    21    22    1
    37    29    31    1
    38    30    32    1
@<TRIPOS>MOLECULE
*****
 36 38 0 0 0
SMALL
GASTEIGER

@<TRIPOS>ATOM
      1 N          63.9564   83.8257   12.5941 N.am    1  UNL1       -0.2560
      2 C          63.5830   83.5104   11.1759 C.3     1  UNL1        0.1394
      3 C          62.9104   84.7184   10.5941 C.ar    1  UNL1        0.0662
      4 C          62.2640   85.2701    9.3581 C.ar    1  UNL1        0.0247
      5 C          61.8223   86.6729    9.6528 C.ar    1  UNL1        0.0614
      6 C          62.1956   86.9882   11.0710 C.ar    1  UNL1        0.0922
      7 N          62.8682   85.7803   11.6527 N.ar    1  UNL1       -0.2624
      8 C          63.5146   85.2286   12.8888 C.2     1  UNL1        0.3234
      9 O          63.6886   85.9526   14.1909 O.2     1  UNL1       -0.2490
     10 C          61.1288   87.5981    8.6972 C.1     1  UNL1       -0.0497
     11 C          60.4354   88.5232    7.7415 C.1     1  UNL1       -0.0095
     12 C          59.7420   89.4485    6.7859 C.1     1  UNL1       -0.0138
     13 C          59.0486   90.3737    5.8303 C.1     1  UNL1       -0.0788
     14 C          58.3553   91.2989    4.8747 C.3     1  UNL1        0.0676
     15 C          57.1164   92.0194    4.4322 C.3     1  UNL1        0.0165
     16 C          58.3933   92.1809    3.6619 C.3     1  UNL1        0.0424
     17 C          59.1525   92.7832    2.5170 C.3     1  UNL1        0.1406
     18 O          58.5852   92.7287    1.1295 O.3     1  UNL1       -0.3819
     19 H          59.1971   93.1602    0.5128 H       1  UNL1        0.2104
     20 C          60.4790   93.4402    2.7597 C.3     1  UNL1        0.1663
     21 O          61.7465   92.7334    2.3804 O.3     1  UNL1       -0.3795
     22 H          61.8535   91.9429    2.9323 H       1  UNL1        0.2105
     23 C          64.6498   82.9006   13.5497 C.3     1  UNL1        0.0977
     24 C          64.0709   81.5468   13.8365 C.3     1  UNL1        0.0524
     25 C          61.1050   81.2183   14.1452 C.3     1  UNL1        0.0331
     26 C          62.5880   81.3826   13.9909 C.3     1  UNL1        0.1820
     27 C          62.6160   80.2287   13.0328 C.2     1  UNL1        0.2640
     28 O          62.4514   78.8273   13.5416 O.2     1  UNL1       -0.2713
     29 N          62.8086   80.4763   11.5660 N.am    1  UNL1       -0.1956
     30 O          62.8366   79.3224   10.6080 O.3     1  UNL1       -0.2951
     31 H          62.9166   81.3961   11.2320 H       1  UNL1        0.1823
     32 H          62.7170   78.4932   11.0969 H       1  UNL1        0.2414
     33 S          62.5598   82.5364   14.9488 S.O2    1  UNL1       -0.0034
     34 C          62.5316   83.6903   15.9068 C.3     1  UNL1        0.1765
     35 O          61.2584   82.9939   14.3596 O.2     1  UNL1       -0.1726
     36 O          63.8611   82.0790   15.5381 O.2     1  UNL1       -0.1726
@<TRIPOS>BOND
     1    26    25    1
     2    26    24    1
     3    24    23    1
     4    23     1    1
     5     1     2    1
     6     2     3    1
     7     3     4   ar
     8     4     5   ar
     9     5    10    1
    10    10    11    3
    11    11    12    1
    12    12    13    3
    13    14    13    1
    14    14    15    1
    15    16    15    1
    16    16    17    1
    17    17    18    1
    18    17    20    1
    19    20    21    1
    20     5     6   ar
    21     6     7   ar
    22     7     8   am
    23     8     9    2
    24    26    27    1
    25    27    28    2
    26    27    29   am
    27    29    30    1
    28    26    33    1
    29    33    34    1
    30    33    35    2
    31    33    36    2
    32     8     1   am
    33     7     3   ar
    34    16    14    1
    35    18    19    1
    36    21    22    1
    37    29    31    1
    38    30    32    1
@<TRIPOS>MOLECULE
*****
 36 38 0 0 0
SMALL
GASTEIGER

@<TRIPOS>ATOM
      1 N          61.6278   86.0624   11.5556 N.am    1  UNL1       -0.2560
      2 C          60.7535   85.7521   10.3769 C.3     1  UNL1        0.1394
      3 C          60.7872   86.9320    9.4513 C.ar    1  UNL1        0.0662
      4 C          60.2676   87.4694    8.1508 C.ar    1  UNL1        0.0247
      5 C          60.8416   88.8411    7.9538 C.ar    1  UNL1        0.0614
      6 C          61.7159   89.1515    9.1325 C.ar    1  UNL1        0.0922
      7 N          61.6823   87.9716   10.0580 N.ar    1  UNL1       -0.2624
      8 C          62.2018   87.4342   11.3585 C.2     1  UNL1        0.3234
      9 O          63.1320   88.1439   12.2971 O.2     1  UNL1       -0.2490
     10 C          60.5862   89.7440    6.7835 C.1     1  UNL1       -0.0497
     11 C          60.3308   90.6469    5.6132 C.1     1  UNL1       -0.0095
     12 C          60.0752   91.5498    4.4429 C.1     1  UNL1       -0.0138
     13 C          59.8196   92.4527    3.2727 C.1     1  UNL1       -0.0788
     14 C          59.5641   93.3555    2.1025 C.3     1  UNL1        0.0676
     15 C          59.7143   94.6900    1.4342 C.3     1  UNL1        0.0165
     16 C          58.9712   93.5850    0.7438 C.3     1  UNL1        0.0424
     17 C          58.1998   93.0794   -0.4391 C.3     1  UNL1        0.1406
     18 O          58.6229   91.8145   -1.1254 O.3     1  UNL1       -0.3819
     19 H          58.0220   91.6312   -1.8645 H       1  UNL1        0.2104
     20 C          57.0052   93.8387   -0.9357 C.3     1  UNL1        0.1663
     21 O          56.5088   93.6243   -2.3348 O.3     1  UNL1       -0.3795
     22 H          57.1748   93.9387   -2.9660 H       1  UNL1        0.2105
     23 C          61.8832   85.1596   12.7258 C.3     1  UNL1        0.0977
     24 C          63.0887   84.2668   12.7354 C.3     1  UNL1        0.0524
     25 C          63.9847   82.9835   15.2947 C.3     1  UNL1        0.0331
     26 C          63.5367   83.6252   14.0150 C.3     1  UNL1        0.1820
     27 C          62.8750   82.3434   13.6039 C.2     1  UNL1        0.2640
     28 O          61.3859   82.1995   13.7127 O.2     1  UNL1       -0.2713
     29 N          63.7025   81.2053   13.0841 N.am    1  UNL1       -0.1956
     30 O          63.0408   79.9235   12.6730 O.3     1  UNL1       -0.2951
     31 H          64.6798   81.2998   13.0126 H       1  UNL1        0.1823
     32 H          62.0827   79.9971   12.8057 H       1  UNL1        0.2414
     33 S          64.1984   84.9070   14.4261 S.O2    1  UNL1       -0.0034
     34 C          64.8602   86.1888   14.8372 C.3     1  UNL1        0.1765
     35 O          65.1533   84.7830   13.2760 O.2     1  UNL1       -0.1726
     36 O          63.2436   85.0311   15.5762 O.2     1  UNL1       -0.1726
@<TRIPOS>BOND
     1    26    25    1
     2    26    24    1
     3    24    23    1
     4    23     1    1
     5     1     2    1
     6     2     3    1
     7     3     4   ar
     8     4     5   ar
     9     5    10    1
    10    10    11    3
    11    11    12    1
    12    12    13    3
    13    14    13    1
    14    14    15    1
    15    16    15    1
    16    16    17    1
    17    17    18    1
    18    17    20    1
    19    20    21    1
    20     5     6   ar
    21     6     7   ar
    22     7     8   am
    23     8     9    2
    24    26    27    1
    25    27    28    2
    26    27    29   am
    27    29    30    1
    28    26    33    1
    29    33    34    1
    30    33    35    2
    31    33    36    2
    32     8     1   am
    33     7     3   ar
    34    16    14    1
    35    18    19    1
    36    21    22    1
    37    29    31    1
    38    30    32    1
@<TRIPOS>MOLECULE
*****
 36 38 0 0 0
SMALL
GASTEIGER

@<TRIPOS>ATOM
      1 N          59.5173   95.3922   -0.6846 N.am    1  UNL1       -0.2560
      2 C          58.5638   94.2847   -0.3463 C.3     1  UNL1        0.1394
      3 C          59.0144   93.6623    0.9419 C.ar    1  UNL1        0.0662
      4 C          58.7035   92.5933    1.9471 C.ar    1  UNL1        0.0247
      5 C          59.7435   92.6553    3.0263 C.ar    1  UNL1        0.0614
      6 C          60.6970   93.7627    2.6881 C.ar    1  UNL1        0.0922
      7 N          60.2464   94.3851    1.3998 N.ar    1  UNL1       -0.2624
      8 C          60.5573   95.4541    0.3946 C.2     1  UNL1        0.3234
      9 O          61.7064   96.4163    0.4576 O.2     1  UNL1       -0.2490
     10 C          59.8170   91.7661    4.2321 C.1     1  UNL1       -0.0497
     11 C          59.8905   90.8768    5.4378 C.1     1  UNL1       -0.0095
     12 C          59.9639   89.9876    6.6437 C.1     1  UNL1       -0.0138
     13 C          60.0373   89.0985    7.8495 C.1     1  UNL1       -0.0788
     14 C          60.1107   88.2094    9.0553 C.3     1  UNL1        0.0676
     15 C          59.5223   87.7176   10.3444 C.3     1  UNL1        0.0165
     16 C          60.8263   87.1611    9.8548 C.3     1  UNL1        0.0424
     17 C          61.9924   86.2347   10.0336 C.3     1  UNL1        0.1406
     18 O          62.7301   86.2009   11.3393 O.3     1  UNL1       -0.3819
     19 H          63.4503   85.5533   11.2870 H       1  UNL1        0.2104
     20 C          62.4208   85.3420    8.9068 C.3     1  UNL1        0.1663
     21 O          61.8304   85.5238    7.5399 O.3     1  UNL1       -0.3795
     22 H          60.8845   85.3106    7.5652 H       1  UNL1        0.2105
     23 C          59.4439   96.2814   -1.8903 C.3     1  UNL1        0.0977
     24 C          58.8961   95.7502   -3.1818 C.3     1  UNL1        0.0524
     25 C          58.7995   92.7911   -3.6661 C.3     1  UNL1        0.0331
     26 C          58.8477   94.2707   -3.4239 C.3     1  UNL1        0.1820
     27 C          60.3415   94.2438   -3.5583 C.2     1  UNL1        0.2640
     28 O          61.1603   93.3717   -2.6534 O.2     1  UNL1       -0.2713
     29 N          61.0164   95.0891   -4.5975 N.am    1  UNL1       -0.1956
     30 O          62.5101   95.0623   -4.7318 O.3     1  UNL1       -0.2951
     31 H          60.4790   95.6616   -5.1914 H       1  UNL1        0.1823
     32 H          62.8828   94.4519   -4.0764 H       1  UNL1        0.2414
     33 S          57.3541   94.2975   -3.2896 S.O2    1  UNL1       -0.0034
     34 C          55.8603   94.3241   -3.1553 C.3     1  UNL1        0.1765
     35 O          57.3724   92.8784   -2.8038 O.2     1  UNL1       -0.1726
     36 O          57.3357   95.7164   -3.7754 O.2     1  UNL1       -0.1726
@<TRIPOS>BOND
     1    26    25    1
     2    26    24    1
     3    24    23    1
     4    23     1    1
     5     1     2    1
     6     2     3    1
     7     3     4   ar
     8     4     5   ar
     9     5    10    1
    10    10    11    3
    11    11    12    1
    12    12    13    3
    13    14    13    1
    14    14    15    1
    15    16    15    1
    16    16    17    1
    17    17    18    1
    18    17    20    1
    19    20    21    1
    20     5     6   ar
    21     6     7   ar
    22     7     8   am
    23     8     9    2
    24    26    27    1
    25    27    28    2
    26    27    29   am
    27    29    30    1
    28    26    33    1
    29    33    34    1
    30    33    35    2
    31    33    36    2
    32     8     1   am
    33     7     3   ar
    34    16    14    1
    35    18    19    1
    36    21    22    1
    37    29    31    1
    38    30    32    1
