@<TRIPOS>MOLECULE
*****
 28 31 0 0 0
SMALL
GASTEIGER

@<TRIPOS>ATOM
      1 C          64.8782   90.8206   14.2049 C.ar    1  UNL1        0.0664
      2 C          64.7113   89.4090   14.6838 C.ar    1  UNL1        0.0058
      3 C          64.0092   88.4025   13.8212 C.ar    1  UNL1        0.0017
      4 C          63.4741   88.8075   12.4798 C.ar    1  UNL1        0.0013
      5 C          63.6410   90.2192   12.0008 C.ar    1  UNL1        0.0142
      6 C          64.3430   91.2258   12.8634 C.ar    1  UNL1        0.0459
      7 N          64.5100   92.6374   12.3845 N.pl3   1  UNL1       -0.3569
      8 H          64.1587   92.9033   11.5040 H       1  UNL1        0.1424
      9 H          64.9707   93.2981   12.9506 H       1  UNL1        0.1424
     10 C          63.8423   86.9908   14.3001 C.ar    1  UNL1        0.0190
     11 C          63.7774   86.7003   15.7703 C.ar    1  UNL1        0.1002
     12 N          63.6105   85.2886   16.2491 N.ar    1  UNL1       -0.2297
     13 C          63.5085   84.1675   15.2579 C.ar    1  UNL1        0.1245
     14 C          63.5734   84.4580   13.7877 C.ar    1  UNL1        0.0102
     15 C          63.7403   85.8696   13.3088 C.ar    1  UNL1        0.0001
     16 C          63.4457   83.1570   13.0520 C.3     1  UNL1        0.0395
     17 C          63.5895   84.2516   12.0365 C.3     1  UNL1        0.0058
     18 C          63.5507   83.6271   10.6732 C.3     1  UNL1        0.0004
     19 C          63.3830   82.1466   10.8462 C.3     1  UNL1        0.0004
     20 C          63.3181   81.8560   12.3163 C.3     1  UNL1        0.0058
     21 C          63.3020   82.0624   14.0675 C.3     1  UNL1        0.0922
     22 N          63.3407   82.6869   15.4308 N.pl3   1  UNL1       -0.3181
     23 H          63.2688   82.2090   16.2885 H       1  UNL1        0.1482
     24 C          67.6827   93.2576   15.5998 C.3     1  UNL1        0.1152
     25 N          66.9807   92.2511   14.7372 N.am    1  UNL1       -0.2725
     26 C          67.6791   91.6684   13.5445 C.3     1  UNL1        0.1152
     27 C          65.5802   91.8272   15.0674 C.2     1  UNL1        0.2503
     28 O          64.8817   92.4099   16.2602 O.2     1  UNL1       -0.2699
@<TRIPOS>BOND
     1    24    25    1
     2    25    26    1
     3    25    27   am
     4    27    28    2
     5    27     1    1
     6     1     2   ar
     7     2     3   ar
     8     3    10    1
     9    10    11   ar
    10    11    12   ar
    11    12    13   ar
    12    13    14   ar
    13    14    15   ar
    14    14    16    1
    15    16    17    1
    16    17    18    1
    17    18    19    1
    18    19    20    1
    19    16    21    1
    20    21    22    1
    21     3     4   ar
    22     4     5   ar
    23     5     6   ar
    24     6     7    1
    25     6     1   ar
    26    15    10   ar
    27    20    16    1
    28    22    13    1
    29    22    23    1
    30     7     8    1
    31     7     9    1
@<TRIPOS>MOLECULE
*****
 28 31 0 0 0
SMALL
GASTEIGER

@<TRIPOS>ATOM
      1 C          65.2360   92.5178   11.3958 C.ar    1  UNL1        0.0664
      2 C          64.0892   91.8129   10.7342 C.ar    1  UNL1        0.0058
      3 C          63.3685   90.7127   11.4554 C.ar    1  UNL1        0.0017
      4 C          63.7945   90.3175   12.8383 C.ar    1  UNL1        0.0013
      5 C          64.9414   91.0225   13.5000 C.ar    1  UNL1        0.0142
      6 C          65.6621   92.1226   12.7787 C.ar    1  UNL1        0.0459
      7 N          66.8090   92.8276   13.4404 N.pl3   1  UNL1       -0.3569
      8 H          67.0886   92.5683   14.3480 H       1  UNL1        0.1424
      9 H          67.2820   93.5497   12.9670 H       1  UNL1        0.1424
     10 C          62.2216   90.0077   10.7938 C.ar    1  UNL1        0.0190
     11 C          60.8439   90.5981   10.8525 C.ar    1  UNL1        0.1002
     12 N          59.6971   89.8930   10.1908 N.ar    1  UNL1       -0.2297
     13 C          59.9280   88.5977    9.4705 C.ar    1  UNL1        0.1245
     14 C          61.3057   88.0074    9.4119 C.ar    1  UNL1        0.0102
     15 C          62.4525   88.7124   10.0735 C.ar    1  UNL1        0.0001
     16 C          61.2285   86.7266    8.6349 C.3     1  UNL1        0.0395
     17 C          62.6539   86.9278    9.0564 C.3     1  UNL1        0.0058
     18 C          63.4576   85.7714    8.5400 C.3     1  UNL1        0.0004
     19 C          62.5290   84.8555    7.7993 C.3     1  UNL1        0.0004
     20 C          61.1513   85.4458    7.8580 C.3     1  UNL1        0.0058
     21 C          59.8030   86.5253    8.2134 C.3     1  UNL1        0.0922
     22 N          58.9993   87.6818    8.7298 N.pl3   1  UNL1       -0.3181
     23 H          58.0321   87.8160    8.6046 H       1  UNL1        0.1482
     24 C          67.9632   94.4287    9.2369 C.3     1  UNL1        0.1152
     25 N          67.2424   93.3286    9.9582 N.am    1  UNL1       -0.2725
     26 C          67.8073   91.9391    9.9629 C.3     1  UNL1        0.1152
     27 C          65.9568   93.6180   10.6746 C.2     1  UNL1        0.2503
     28 O          65.3919   95.0076   10.6699 O.2     1  UNL1       -0.2699
@<TRIPOS>BOND
     1    24    25    1
     2    25    26    1
     3    25    27   am
     4    27    28    2
     5    27     1    1
     6     1     2   ar
     7     2     3   ar
     8     3    10    1
     9    10    11   ar
    10    11    12   ar
    11    12    13   ar
    12    13    14   ar
    13    14    15   ar
    14    14    16    1
    15    16    17    1
    16    17    18    1
    17    18    19    1
    18    19    20    1
    19    16    21    1
    20    21    22    1
    21     3     4   ar
    22     4     5   ar
    23     5     6   ar
    24     6     7    1
    25     6     1   ar
    26    15    10   ar
    27    20    16    1
    28    22    13    1
    29    22    23    1
    30     7     8    1
    31     7     9    1
@<TRIPOS>MOLECULE
*****
 28 31 0 0 0
SMALL
GASTEIGER

@<TRIPOS>ATOM
      1 C          64.2182   89.4920   14.7393 C.ar    1  UNL1        0.0664
      2 C          64.2679   88.0444   14.3495 C.ar    1  UNL1        0.0058
      3 C          63.7288   86.9983   15.2795 C.ar    1  UNL1        0.0017
      4 C          63.1401   87.3997   16.5994 C.ar    1  UNL1        0.0013
      5 C          63.0903   88.8474   16.9893 C.ar    1  UNL1        0.0142
      6 C          63.6293   89.8935   16.0592 C.ar    1  UNL1        0.0459
      7 N          63.5796   91.3411   16.4491 N.pl3   1  UNL1       -0.3569
      8 H          63.1932   91.6046   17.3154 H       1  UNL1        0.1424
      9 H          63.9334   92.0277   15.8386 H       1  UNL1        0.1424
     10 C          63.7786   85.5507   14.8897 C.ar    1  UNL1        0.0190
     11 C          63.9478   84.4958   15.9426 C.ar    1  UNL1        0.1002
     12 N          63.9975   83.0482   15.5527 N.ar    1  UNL1       -0.2297
     13 C          63.8781   82.6555   14.1100 C.ar    1  UNL1        0.1245
     14 C          63.7089   83.7104   13.0571 C.ar    1  UNL1        0.0102
     15 C          63.6591   85.1580   13.4469 C.ar    1  UNL1        0.0001
     16 C          63.6183   83.0259   11.7254 C.3     1  UNL1        0.0395
     17 C          63.5051   84.5038   11.4956 C.3     1  UNL1        0.0058
     18 C          63.3445   84.7327   10.0219 C.3     1  UNL1        0.0004
     19 C          63.3585   83.3962    9.3409 C.3     1  UNL1        0.0004
     20 C          63.5277   82.3413   10.3938 C.3     1  UNL1        0.0058
     21 C          63.7315   81.5479   11.9554 C.3     1  UNL1        0.0922
     22 N          63.8921   81.3190   13.4291 N.pl3   1  UNL1       -0.3181
     23 H          63.9895   80.4451   13.8717 H       1  UNL1        0.1482
     24 C          64.5519   91.9261   11.6226 C.3     1  UNL1        0.1152
     25 N          64.0128   90.8799   12.5527 N.am    1  UNL1       -0.2725
     26 C          62.7294   90.1756   12.2261 C.3     1  UNL1        0.1152
     27 C          64.7572   90.5382   13.8092 C.2     1  UNL1        0.2503
     28 O          66.0407   91.2425   14.1358 O.2     1  UNL1       -0.2699
@<TRIPOS>BOND
     1    24    25    1
     2    25    26    1
     3    25    27   am
     4    27    28    2
     5    27     1    1
     6     1     2   ar
     7     2     3   ar
     8     3    10    1
     9    10    11   ar
    10    11    12   ar
    11    12    13   ar
    12    13    14   ar
    13    14    15   ar
    14    14    16    1
    15    16    17    1
    16    17    18    1
    17    18    19    1
    18    19    20    1
    19    16    21    1
    20    21    22    1
    21     3     4   ar
    22     4     5   ar
    23     5     6   ar
    24     6     7    1
    25     6     1   ar
    26    15    10   ar
    27    20    16    1
    28    22    13    1
    29    22    23    1
    30     7     8    1
    31     7     9    1
@<TRIPOS>MOLECULE
*****
 28 31 0 0 0
SMALL
GASTEIGER

@<TRIPOS>ATOM
      1 C          65.6987   93.2562   12.4100 C.ar    1  UNL1        0.0664
      2 C          64.7855   92.3246   11.6696 C.ar    1  UNL1        0.0058
      3 C          64.2222   91.1190   12.3618 C.ar    1  UNL1        0.0017
      4 C          64.5720   90.8449   13.7944 C.ar    1  UNL1        0.0013
      5 C          65.4853   91.7765   14.5349 C.ar    1  UNL1        0.0142
      6 C          66.0486   92.9821   13.8427 C.ar    1  UNL1        0.0459
      7 N          66.9618   93.9136   14.5831 N.pl3   1  UNL1       -0.3569
      8 H          67.1915   93.7337   15.5234 H       1  UNL1        0.1424
      9 H          67.3316   94.7049   14.1288 H       1  UNL1        0.1424
     10 C          63.3090   90.1875   11.6214 C.ar    1  UNL1        0.0190
     11 C          62.4208   90.7150   10.5338 C.ar    1  UNL1        0.1002
     12 N          61.5075   89.7834    9.7934 N.ar    1  UNL1       -0.2297
     13 C          61.4825   88.3244   10.1405 C.ar    1  UNL1        0.1245
     14 C          62.3707   87.7969   11.2281 C.ar    1  UNL1        0.0102
     15 C          63.2839   88.7284   11.9685 C.ar    1  UNL1        0.0001
     16 C          62.1301   86.3211   11.3483 C.3     1  UNL1        0.0395
     17 C          63.1670   86.7057   12.3616 C.3     1  UNL1        0.0058
     18 C          63.5672   85.4676   13.1080 C.3     1  UNL1        0.0004
     19 C          62.7775   84.3180   12.5560 C.3     1  UNL1        0.0004
     20 C          61.8893   84.8455   11.4684 C.3     1  UNL1        0.0058
     21 C          61.0930   85.9366   10.3349 C.3     1  UNL1        0.0922
     22 N          60.6929   87.1747    9.5885 N.pl3   1  UNL1       -0.3181
     23 H          60.0286   87.2240    8.8636 H       1  UNL1        0.1482
     24 C          67.5943   95.5076    9.7477 C.3     1  UNL1        0.1152
     25 N          67.0309   94.3019   10.4399 N.am    1  UNL1       -0.2725
     26 C          67.2365   92.9365    9.8541 C.3     1  UNL1        0.1152
     27 C          66.2621   94.4618   11.7179 C.2     1  UNL1        0.2503
     28 O          66.0565   95.8273   12.3037 O.2     1  UNL1       -0.2699
@<TRIPOS>BOND
     1    24    25    1
     2    25    26    1
     3    25    27   am
     4    27    28    2
     5    27     1    1
     6     1     2   ar
     7     2     3   ar
     8     3    10    1
     9    10    11   ar
    10    11    12   ar
    11    12    13   ar
    12    13    14   ar
    13    14    15   ar
    14    14    16    1
    15    16    17    1
    16    17    18    1
    17    18    19    1
    18    19    20    1
    19    16    21    1
    20    21    22    1
    21     3     4   ar
    22     4     5   ar
    23     5     6   ar
    24     6     7    1
    25     6     1   ar
    26    15    10   ar
    27    20    16    1
    28    22    13    1
    29    22    23    1
    30     7     8    1
    31     7     9    1
@<TRIPOS>MOLECULE
*****
 28 31 0 0 0
SMALL
GASTEIGER

@<TRIPOS>ATOM
      1 C          63.7372   85.6528   14.5714 C.ar    1  UNL1        0.0664
      2 C          64.0682   86.9448   13.8850 C.ar    1  UNL1        0.0058
      3 C          63.9528   88.2412   14.6307 C.ar    1  UNL1        0.0017
      4 C          63.5065   88.2456   16.0627 C.ar    1  UNL1        0.0013
      5 C          63.1754   86.9535   16.7491 C.ar    1  UNL1        0.0142
      6 C          63.2908   85.6571   16.0034 C.ar    1  UNL1        0.0459
      7 N          62.9598   84.3651   16.6898 N.pl3   1  UNL1       -0.3569
      8 H          62.6668   84.3680   17.6297 H       1  UNL1        0.1424
      9 H          63.0355   83.5142   16.2003 H       1  UNL1        0.1424
     10 C          64.2839   89.5332   13.9444 C.ar    1  UNL1        0.0190
     11 C          63.5991   89.8973   12.6605 C.ar    1  UNL1        0.1002
     12 N          63.9301   91.1894   11.9741 N.ar    1  UNL1       -0.2297
     13 C          64.9459   92.1173   12.5717 C.ar    1  UNL1        0.1245
     14 C          65.6307   91.7532   13.8556 C.ar    1  UNL1        0.0102
     15 C          65.2997   90.4612   14.5420 C.ar    1  UNL1        0.0001
     16 C          66.5819   92.8596   14.2037 C.3     1  UNL1        0.0395
     17 C          66.6788   91.8116   15.2725 C.3     1  UNL1        0.0058
     18 C          67.6899   92.2704   16.2811 C.3     1  UNL1        0.0004
     19 C          68.2178   93.6019   15.8357 C.3     1  UNL1        0.0004
     20 C          67.5331   93.9660   14.5518 C.3     1  UNL1        0.0058
     21 C          66.4849   93.9076   13.1349 C.3     1  UNL1        0.0922
     22 N          65.4739   93.4488   12.1263 N.pl3   1  UNL1       -0.3181
     23 H          65.2041   93.9360   11.3144 H       1  UNL1        0.1482
     24 C          63.2501   82.8786   11.7755 C.3     1  UNL1        0.1152
     25 N          63.1347   84.1750   12.5212 N.am    1  UNL1       -0.2725
     26 C          62.3015   85.2901   11.9624 C.3     1  UNL1        0.1152
     27 C          63.8526   84.3564   13.8257 C.2     1  UNL1        0.2503
     28 O          64.6858   83.2413   14.3846 O.2     1  UNL1       -0.2699
@<TRIPOS>BOND
     1    24    25    1
     2    25    26    1
     3    25    27   am
     4    27    28    2
     5    27     1    1
     6     1     2   ar
     7     2     3   ar
     8     3    10    1
     9    10    11   ar
    10    11    12   ar
    11    12    13   ar
    12    13    14   ar
    13    14    15   ar
    14    14    16    1
    15    16    17    1
    16    17    18    1
    17    18    19    1
    18    19    20    1
    19    16    21    1
    20    21    22    1
    21     3     4   ar
    22     4     5   ar
    23     5     6   ar
    24     6     7    1
    25     6     1   ar
    26    15    10   ar
    27    20    16    1
    28    22    13    1
    29    22    23    1
    30     7     8    1
    31     7     9    1
@<TRIPOS>MOLECULE
*****
 28 31 0 0 0
SMALL
GASTEIGER

@<TRIPOS>ATOM
      1 C          63.4040   83.6657   13.6921 C.ar    1  UNL1        0.0664
      2 C          62.9219   84.8195   12.8637 C.ar    1  UNL1        0.0058
      3 C          63.4063   86.2083   13.1581 C.ar    1  UNL1        0.0017
      4 C          64.3729   86.4433   14.2807 C.ar    1  UNL1        0.0013
      5 C          64.8551   85.2894   15.1092 C.ar    1  UNL1        0.0142
      6 C          64.3707   83.9007   14.8148 C.ar    1  UNL1        0.0459
      7 N          64.8528   82.7468   15.6432 N.pl3   1  UNL1       -0.3569
      8 H          65.4873   82.9010   16.3800 H       1  UNL1        0.1424
      9 H          64.5349   81.8354   15.4500 H       1  UNL1        0.1424
     10 C          62.9241   87.3621   12.3297 C.ar    1  UNL1        0.0190
     11 C          63.3375   88.7610   12.6795 C.ar    1  UNL1        0.1002
     12 N          62.8553   89.9148   11.8511 N.ar    1  UNL1       -0.2297
     13 C          61.9597   89.6698   10.6730 C.ar    1  UNL1        0.1245
     14 C          61.5464   88.2709   10.3232 C.ar    1  UNL1        0.0102
     15 C          62.0286   87.1171   11.1516 C.ar    1  UNL1        0.0001
     16 C          60.6622   88.3376    9.1134 C.3     1  UNL1        0.0395
     17 C          60.7953   86.8975    9.5113 C.3     1  UNL1        0.0058
     18 C          59.9934   86.0742    8.5474 C.3     1  UNL1        0.0004
     19 C          59.3646   87.0055    7.5538 C.3     1  UNL1        0.0004
     20 C          59.7779   88.4044    7.9035 C.3     1  UNL1        0.0058
     21 C          60.5290   89.7778    8.7154 C.3     1  UNL1        0.0922
     22 N          61.3310   90.6010    9.6793 N.pl3   1  UNL1       -0.3181
     23 H          61.4277   91.5806    9.6627 H       1  UNL1        0.1482
     24 C          62.7752   80.2366   11.7958 C.3     1  UNL1        0.1152
     25 N          63.2596   81.6254   12.0901 N.am    1  UNL1       -0.2725
     26 C          64.0841   82.3627   11.0769 C.3     1  UNL1        0.1152
     27 C          62.9196   82.2770   13.3977 C.2     1  UNL1        0.2503
     28 O          62.0951   81.5397   14.4111 O.2     1  UNL1       -0.2699
@<TRIPOS>BOND
     1    24    25    1
     2    25    26    1
     3    25    27   am
     4    27    28    2
     5    27     1    1
     6     1     2   ar
     7     2     3   ar
     8     3    10    1
     9    10    11   ar
    10    11    12   ar
    11    12    13   ar
    12    13    14   ar
    13    14    15   ar
    14    14    16    1
    15    16    17    1
    16    17    18    1
    17    18    19    1
    18    19    20    1
    19    16    21    1
    20    21    22    1
    21     3     4   ar
    22     4     5   ar
    23     5     6   ar
    24     6     7    1
    25     6     1   ar
    26    15    10   ar
    27    20    16    1
    28    22    13    1
    29    22    23    1
    30     7     8    1
    31     7     9    1
@<TRIPOS>MOLECULE
*****
 28 31 0 0 0
SMALL
GASTEIGER

@<TRIPOS>ATOM
      1 C          65.1126   91.2905   14.8934 C.ar    1  UNL1        0.0664
      2 C          64.9340   89.9614   14.2214 C.ar    1  UNL1        0.0058
      3 C          64.0853   88.9043   14.8635 C.ar    1  UNL1        0.0017
      4 C          63.4151   89.1764   16.1776 C.ar    1  UNL1        0.0013
      5 C          63.5936   90.5056   16.8496 C.ar    1  UNL1        0.0142
      6 C          64.4424   91.5626   16.2075 C.ar    1  UNL1        0.0459
      7 N          64.6209   92.8917   16.8794 N.pl3   1  UNL1       -0.3569
      8 H          64.1810   93.0703   17.7419 H       1  UNL1        0.1424
      9 H          65.1779   93.5855   16.4580 H       1  UNL1        0.1424
     10 C          63.9068   87.5752   14.1916 C.ar    1  UNL1        0.0190
     11 C          64.4055   86.3261   14.8556 C.ar    1  UNL1        0.1002
     12 N          64.2270   84.9969   14.1836 N.ar    1  UNL1       -0.2297
     13 C          63.5497   84.9170   12.8476 C.ar    1  UNL1        0.1245
     14 C          63.0509   86.1661   12.1836 C.ar    1  UNL1        0.0102
     15 C          63.2295   87.4952   12.8556 C.ar    1  UNL1        0.0001
     16 C          62.4268   85.7784   10.8758 C.3     1  UNL1        0.0395
     17 C          62.3138   87.2672   11.0201 C.3     1  UNL1        0.0058
     18 C          61.6198   87.7995    9.8015 C.3     1  UNL1        0.0004
     19 C          61.3040   86.6398    8.9041 C.3     1  UNL1        0.0004
     20 C          61.8028   85.3906    9.5681 C.3     1  UNL1        0.0058
     21 C          62.5399   84.2896   10.7316 C.3     1  UNL1        0.0922
     22 N          63.2339   83.7572   11.9503 N.pl3   1  UNL1       -0.3181
     23 H          63.4450   82.8125   12.1296 H       1  UNL1        0.1482
     24 C          66.5473   93.8188   12.1917 C.3     1  UNL1        0.1152
     25 N          65.6985   92.7617   12.8338 N.am    1  UNL1       -0.2725
     26 C          64.5870   92.1189   12.0584 C.3     1  UNL1        0.1152
     27 C          65.9613   92.3475   14.2513 C.2     1  UNL1        0.2503
     28 O          67.0729   92.9904   15.0267 O.2     1  UNL1       -0.2699
@<TRIPOS>BOND
     1    24    25    1
     2    25    26    1
     3    25    27   am
     4    27    28    2
     5    27     1    1
     6     1     2   ar
     7     2     3   ar
     8     3    10    1
     9    10    11   ar
    10    11    12   ar
    11    12    13   ar
    12    13    14   ar
    13    14    15   ar
    14    14    16    1
    15    16    17    1
    16    17    18    1
    17    18    19    1
    18    19    20    1
    19    16    21    1
    20    21    22    1
    21     3     4   ar
    22     4     5   ar
    23     5     6   ar
    24     6     7    1
    25     6     1   ar
    26    15    10   ar
    27    20    16    1
    28    22    13    1
    29    22    23    1
    30     7     8    1
    31     7     9    1
@<TRIPOS>MOLECULE
*****
 28 31 0 0 0
SMALL
GASTEIGER

@<TRIPOS>ATOM
      1 C          61.9720   87.0071   10.3701 C.ar    1  UNL1        0.0664
      2 C          62.8594   87.8047   11.2791 C.ar    1  UNL1        0.0058
      3 C          62.4053   89.1410   11.7874 C.ar    1  UNL1        0.0017
      4 C          61.0640   89.6795   11.3866 C.ar    1  UNL1        0.0013
      5 C          60.1766   88.8819   10.4776 C.ar    1  UNL1        0.0142
      6 C          60.6306   87.5456    9.9693 C.ar    1  UNL1        0.0459
      7 N          59.7433   86.7480    9.0603 N.pl3   1  UNL1       -0.3569
      8 H          58.8629   87.1015    8.7972 H       1  UNL1        0.1424
      9 H          60.0413   85.8710    8.7267 H       1  UNL1        0.1424
     10 C          63.2926   89.9386   12.6964 C.ar    1  UNL1        0.0190
     11 C          63.4203   89.5595   14.1421 C.ar    1  UNL1        0.1002
     12 N          64.3077   90.3572   15.0511 N.ar    1  UNL1       -0.2297
     13 C          65.0673   91.5340   14.5145 C.ar    1  UNL1        0.1245
     14 C          64.9397   91.9131   13.0688 C.ar    1  UNL1        0.0102
     15 C          64.0524   91.1155   12.1598 C.ar    1  UNL1        0.0001
     16 C          65.8046   93.1145   12.8265 C.3     1  UNL1        0.0395
     17 C          65.1424   92.7511   11.5305 C.3     1  UNL1        0.0058
     18 C          65.5981   93.7279   10.4874 C.3     1  UNL1        0.0004
     19 C          66.5419   94.6950   11.1385 C.3     1  UNL1        0.0004
     20 C          66.6695   94.3158   12.5842 C.3     1  UNL1        0.0058
     21 C          66.4668   93.4778   14.1225 C.3     1  UNL1        0.0922
     22 N          66.0112   92.5010   15.1656 N.pl3   1  UNL1       -0.3181
     23 H          66.2837   92.4956   16.1117 H       1  UNL1        0.1482
     24 C          63.2766   83.2593   10.3213 C.3     1  UNL1        0.1152
     25 N          62.8226   84.5956   10.8295 N.am    1  UNL1       -0.2725
     26 C          62.7651   84.8565   12.3055 C.3     1  UNL1        0.1152
     27 C          62.4261   85.6708    9.8618 C.2     1  UNL1        0.2503
     28 O          62.4836   85.4099    8.3858 O.2     1  UNL1       -0.2699
@<TRIPOS>BOND
     1    24    25    1
     2    25    26    1
     3    25    27   am
     4    27    28    2
     5    27     1    1
     6     1     2   ar
     7     2     3   ar
     8     3    10    1
     9    10    11   ar
    10    11    12   ar
    11    12    13   ar
    12    13    14   ar
    13    14    15   ar
    14    14    16    1
    15    16    17    1
    16    17    18    1
    17    18    19    1
    18    19    20    1
    19    16    21    1
    20    21    22    1
    21     3     4   ar
    22     4     5   ar
    23     5     6   ar
    24     6     7    1
    25     6     1   ar
    26    15    10   ar
    27    20    16    1
    28    22    13    1
    29    22    23    1
    30     7     8    1
    31     7     9    1
@<TRIPOS>MOLECULE
*****
 28 31 0 0 0
SMALL
GASTEIGER

@<TRIPOS>ATOM
      1 C          65.7740   92.9084   12.3424 C.ar    1  UNL1        0.0664
      2 C          65.0431   91.6387   12.0206 C.ar    1  UNL1        0.0058
      3 C          64.6757   90.6858   13.1192 C.ar    1  UNL1        0.0017
      4 C          65.0392   91.0025   14.5396 C.ar    1  UNL1        0.0013
      5 C          65.7701   92.2723   14.8614 C.ar    1  UNL1        0.0142
      6 C          66.1375   93.2252   13.7628 C.ar    1  UNL1        0.0459
      7 N          66.8684   94.4950   14.0846 N.pl3   1  UNL1       -0.3569
      8 H          67.1070   94.7029   15.0168 H       1  UNL1        0.1424
      9 H          67.1095   95.1204   13.3635 H       1  UNL1        0.1424
     10 C          63.9448   89.4161   12.7974 C.ar    1  UNL1        0.0190
     11 C          64.1922   88.1811   13.6121 C.ar    1  UNL1        0.1002
     12 N          63.4613   86.9114   13.2903 N.ar    1  UNL1       -0.2297
     13 C          62.4829   86.8766   12.1539 C.ar    1  UNL1        0.1245
     14 C          62.2354   88.1115   11.3392 C.ar    1  UNL1        0.0102
     15 C          62.9663   89.3812   11.6610 C.ar    1  UNL1        0.0001
     16 C          61.2204   87.7769   10.2867 C.3     1  UNL1        0.0395
     17 C          61.6002   89.2187   10.1225 C.3     1  UNL1        0.0058
     18 C          60.8200   89.7750    8.9685 C.3     1  UNL1        0.0004
     19 C          59.9578   88.6771    8.4196 C.3     1  UNL1        0.0004
     20 C          60.2053   87.4422    9.2342 C.3     1  UNL1        0.0058
     21 C          60.8405   86.3351   10.4509 C.3     1  UNL1        0.0922
     22 N          61.6208   85.7787   11.6049 N.pl3   1  UNL1       -0.3181
     23 H          61.5751   84.8551   11.9426 H       1  UNL1        0.1482
     24 C          67.5365   94.4227    9.1252 C.3     1  UNL1        0.1152
     25 N          67.1691   93.4698   10.2238 N.am    1  UNL1       -0.2725
     26 C          67.8295   92.1253   10.3024 C.3     1  UNL1        0.1152
     27 C          66.1414   93.8614   11.2438 C.2     1  UNL1        0.2503
     28 O          65.4810   95.2059   11.1652 O.2     1  UNL1       -0.2699
@<TRIPOS>BOND
     1    24    25    1
     2    25    26    1
     3    25    27   am
     4    27    28    2
     5    27     1    1
     6     1     2   ar
     7     2     3   ar
     8     3    10    1
     9    10    11   ar
    10    11    12   ar
    11    12    13   ar
    12    13    14   ar
    13    14    15   ar
    14    14    16    1
    15    16    17    1
    16    17    18    1
    17    18    19    1
    18    19    20    1
    19    16    21    1
    20    21    22    1
    21     3     4   ar
    22     4     5   ar
    23     5     6   ar
    24     6     7    1
    25     6     1   ar
    26    15    10   ar
    27    20    16    1
    28    22    13    1
    29    22    23    1
    30     7     8    1
    31     7     9    1
