@<TRIPOS>MOLECULE
*****
 23 25 0 0 0
SMALL
GASTEIGER

@<TRIPOS>ATOM
      1 C          64.4710   91.4708   12.2380 C.3     1  UNL1        0.1018
      2 C          65.1445   91.9635   13.4844 C.3     1  UNL1        0.1221
      3 C          66.2453   92.8404   14.0033 C.3     1  UNL1        0.1319
      4 O          67.1909   93.6543   13.1706 O.3     1  UNL1       -0.3827
      5 C          66.2343   92.7607   15.5011 C.3     1  UNL1        0.0525
      6 C          65.1268   91.8344   15.9080 C.3     1  UNL1        0.0976
      7 N          64.4532   91.3417   14.6615 N.am    1  UNL1       -0.2613
      8 C          63.3525   90.4648   14.1426 C.2     1  UNL1        0.3110
      9 O          62.4068   89.6510   14.9753 O.2     1  UNL1       -0.2520
     10 N          63.3634   90.5446   12.6447 N.am    1  UNL1       -0.2433
     11 H          68.1039   93.3967   13.3732 H       1  UNL1        0.2104
     12 C          62.4306   89.8245   11.7167 C.ar    1  UNL1        0.0521
     13 C          61.4854   90.6032   10.8503 C.ar    1  UNL1        0.0154
     14 C          60.5527   89.8831    9.9223 C.ar    1  UNL1        0.0124
     15 C          60.5650   88.3844    9.8604 C.ar    1  UNL1        0.0787
     16 C          61.5101   87.6058   10.7267 C.ar    1  UNL1        0.0645
     17 CL         61.5224   86.1071   10.6649 Cl      1  UNL1       -0.0818
     18 C          62.4429   88.3259   11.6548 C.ar    1  UNL1        0.0031
     19 C          63.3881   87.5473   12.5211 C.3     1  UNL1        0.0332
     20 C          59.6321   87.6644    8.9323 C.1     1  UNL1        0.1013
     21 N          58.6993   86.9443    8.0042 N.1     1  UNL1       -0.1908
     22 C          65.3139   93.2283   10.5203 C.3     1  UNL1        0.0018
     23 C          64.8401   91.8396   10.8317 C.3     1  UNL1        0.0220
@<TRIPOS>BOND
     1    22    23    1
     2     1    23    1
     3     1     2    1
     4     2     3    1
     5     3     4    1
     6     3     5    1
     7     5     6    1
     8     6     7    1
     9     7     8   am
    10     8     9    2
    11     8    10   am
    12    10    12    1
    13    12    13   ar
    14    13    14   ar
    15    14    15   ar
    16    15    20    1
    17    20    21    3
    18    15    16   ar
    19    16    17    1
    20    16    18   ar
    21    18    19    1
    22    10     1    1
    23    18    12   ar
    24     2     7    1
    25     4    11    1
@<TRIPOS>MOLECULE
*****
 23 25 0 0 0
SMALL
GASTEIGER

@<TRIPOS>ATOM
      1 C          63.4137   83.7521   12.2788 C.3     1  UNL1        0.1018
      2 C          62.8773   82.4105   12.6816 C.3     1  UNL1        0.1221
      3 C          62.7941   80.9671   12.2821 C.3     1  UNL1        0.1319
      4 O          63.3906   80.3580   11.0479 O.3     1  UNL1       -0.3827
      5 C          62.0095   80.2397   13.3334 C.3     1  UNL1        0.0525
      6 C          61.6079   81.2335   14.3827 C.3     1  UNL1        0.0976
      7 N          62.1443   82.5752   13.9799 N.am    1  UNL1       -0.2613
      8 C          62.2275   84.0186   14.3794 C.2     1  UNL1        0.3110
      9 O          61.6310   84.6276   15.6136 O.2     1  UNL1       -0.2520
     10 N          63.0121   84.7461   13.3280 N.am    1  UNL1       -0.2433
     11 H          62.6922   79.9294   10.5289 H       1  UNL1        0.2104
     12 C          63.3379   86.2102   13.3263 C.ar    1  UNL1        0.0521
     13 C          64.1897   86.7904   14.4162 C.ar    1  UNL1        0.0154
     14 C          64.5154   88.2545   14.4145 C.ar    1  UNL1        0.0124
     15 C          63.9894   89.1386   13.3227 C.ar    1  UNL1        0.0787
     16 C          63.1377   88.5585   12.2328 C.ar    1  UNL1        0.0645
     17 CL         62.6117   89.4426   11.1412 Cl      1  UNL1       -0.0818
     18 C          62.8119   87.0942   12.2346 C.ar    1  UNL1        0.0031
     19 C          61.9602   86.5141   11.1447 C.3     1  UNL1        0.0332
     20 C          64.3152   90.6028   13.3210 C.1     1  UNL1        0.1013
     21 N          64.6410   92.0670   13.3193 N.1     1  UNL1       -0.1908
     22 C          63.7224   83.5805    9.7049 C.3     1  UNL1        0.0018
     23 C          64.2116   84.0480   11.0435 C.3     1  UNL1        0.0220
@<TRIPOS>BOND
     1    22    23    1
     2     1    23    1
     3     1     2    1
     4     2     3    1
     5     3     4    1
     6     3     5    1
     7     5     6    1
     8     6     7    1
     9     7     8   am
    10     8     9    2
    11     8    10   am
    12    10    12    1
    13    12    13   ar
    14    13    14   ar
    15    14    15   ar
    16    15    20    1
    17    20    21    3
    18    15    16   ar
    19    16    17    1
    20    16    18   ar
    21    18    19    1
    22    10     1    1
    23    18    12   ar
    24     2     7    1
    25     4    11    1
@<TRIPOS>MOLECULE
*****
 23 25 0 0 0
SMALL
GASTEIGER

@<TRIPOS>ATOM
      1 C          61.6914   87.0456   10.7627 C.3     1  UNL1        0.1018
      2 C          61.9268   88.5268   10.7403 C.3     1  UNL1        0.1221
      3 C          61.5705   89.8016   10.0346 C.3     1  UNL1        0.1319
      4 O          60.6405   89.9317    8.8649 O.3     1  UNL1       -0.3827
      5 C          62.3076   90.9235   10.7040 C.3     1  UNL1        0.0525
      6 C          63.1193   90.3421   11.8234 C.3     1  UNL1        0.0976
      7 N          62.8840   88.8608   11.8458 N.am    1  UNL1       -0.2613
      8 C          63.2402   87.5861   12.5515 C.2     1  UNL1        0.3110
      9 O          64.1702   87.4560   13.7212 O.2     1  UNL1       -0.2520
     10 N          62.5031   86.4641   11.8821 N.am    1  UNL1       -0.2433
     11 H          61.1094   90.3459    8.1236 H       1  UNL1        0.2104
     12 C          62.5667   85.0152   12.2648 C.ar    1  UNL1        0.0521
     13 C          62.1701   84.5863   13.6465 C.ar    1  UNL1        0.0154
     14 C          62.2336   83.1375   14.0292 C.ar    1  UNL1        0.0124
     15 C          62.6938   82.1173   13.0304 C.ar    1  UNL1        0.0787
     16 C          63.0904   82.5461   11.6488 C.ar    1  UNL1        0.0645
     17 CL         63.5505   81.5260   10.6500 Cl      1  UNL1       -0.0818
     18 C          63.0268   83.9951   11.2661 C.ar    1  UNL1        0.0031
     19 C          63.4235   84.4239    9.8845 C.3     1  UNL1        0.0332
     20 C          62.7573   80.6683   13.4132 C.1     1  UNL1        0.1013
     21 N          62.8208   79.2194   13.7960 N.1     1  UNL1       -0.1908
     22 C          60.9189   86.4795    8.3476 C.3     1  UNL1        0.0018
     23 C          60.8007   86.2801    9.8296 C.3     1  UNL1        0.0220
@<TRIPOS>BOND
     1    22    23    1
     2     1    23    1
     3     1     2    1
     4     2     3    1
     5     3     4    1
     6     3     5    1
     7     5     6    1
     8     6     7    1
     9     7     8   am
    10     8     9    2
    11     8    10   am
    12    10    12    1
    13    12    13   ar
    14    13    14   ar
    15    14    15   ar
    16    15    20    1
    17    20    21    3
    18    15    16   ar
    19    16    17    1
    20    16    18   ar
    21    18    19    1
    22    10     1    1
    23    18    12   ar
    24     2     7    1
    25     4    11    1
@<TRIPOS>MOLECULE
*****
 23 25 0 0 0
SMALL
GASTEIGER

@<TRIPOS>ATOM
      1 C          62.7779   86.8466   12.0202 C.3     1  UNL1        0.1018
      2 C          63.1781   88.0723   12.7866 C.3     1  UNL1        0.1221
      3 C          63.0251   89.5628   12.8578 C.3     1  UNL1        0.1319
      4 O          62.2140   90.4115   11.9242 O.3     1  UNL1       -0.3827
      5 C          63.8257   90.0556   14.0267 C.3     1  UNL1        0.0525
      6 C          64.4735   88.8697   14.6779 C.3     1  UNL1        0.0976
      7 N          64.0733   87.6439   13.9115 N.am    1  UNL1       -0.2613
      8 C          64.2263   86.1535   13.8403 C.2     1  UNL1        0.3110
      9 O          65.0374   85.3048   14.7739 O.2     1  UNL1       -0.2520
     10 N          63.4256   85.6606   12.6714 N.am    1  UNL1       -0.2433
     11 H          62.7850   91.0827   11.5188 H       1  UNL1        0.2104
     12 C          63.2956   84.2327   12.2310 C.ar    1  UNL1        0.0521
     13 C          63.8485   83.8037   10.9042 C.ar    1  UNL1        0.0154
     14 C          63.7185   82.3758   10.4638 C.ar    1  UNL1        0.0124
     15 C          63.0356   81.3767   11.3503 C.ar    1  UNL1        0.0787
     16 C          62.4828   81.8056   12.6770 C.ar    1  UNL1        0.0645
     17 CL         61.7999   80.8066   13.5634 Cl      1  UNL1       -0.0818
     18 C          62.6128   83.2337   13.1174 C.ar    1  UNL1        0.0031
     19 C          62.0600   83.6627   14.4441 C.3     1  UNL1        0.0332
     20 C          62.9056   79.9487   10.9099 C.1     1  UNL1        0.1013
     21 N          62.7757   78.5207   10.4695 N.1     1  UNL1       -0.1908
     22 C          62.1439   87.7415    9.6650 C.3     1  UNL1        0.0018
     23 C          61.8864   86.8127   10.8144 C.3     1  UNL1        0.0220
@<TRIPOS>BOND
     1    22    23    1
     2     1    23    1
     3     1     2    1
     4     2     3    1
     5     3     4    1
     6     3     5    1
     7     5     6    1
     8     6     7    1
     9     7     8   am
    10     8     9    2
    11     8    10   am
    12    10    12    1
    13    12    13   ar
    14    13    14   ar
    15    14    15   ar
    16    15    20    1
    17    20    21    3
    18    15    16   ar
    19    16    17    1
    20    16    18   ar
    21    18    19    1
    22    10     1    1
    23    18    12   ar
    24     2     7    1
    25     4    11    1
@<TRIPOS>MOLECULE
*****
 23 25 0 0 0
SMALL
GASTEIGER

@<TRIPOS>ATOM
      1 C          63.8819   90.9222   14.2745 C.3     1  UNL1        0.1018
      2 C          64.9810   91.8243   14.7522 C.3     1  UNL1        0.1221
      3 C          65.6139   92.4248   15.9723 C.3     1  UNL1        0.1319
      4 O          65.1780   92.2049   17.3907 O.3     1  UNL1       -0.3827
      5 C          66.7594   93.2839   15.5251 C.3     1  UNL1        0.0525
      6 C          66.8344   93.2143   14.0286 C.3     1  UNL1        0.0976
      7 N          65.7353   92.3122   13.5509 N.am    1  UNL1       -0.2613
      8 C          65.1023   91.7116   12.3308 C.2     1  UNL1        0.3110
      9 O          65.5383   91.9315   10.9125 O.2     1  UNL1       -0.2520
     10 N          63.9569   90.8525   12.7780 N.am    1  UNL1       -0.2433
     11 H          64.9721   93.0590   17.8017 H       1  UNL1        0.2104
     12 C          63.0463   90.0626   11.8854 C.ar    1  UNL1        0.0521
     13 C          62.2213   90.7630   10.8466 C.ar    1  UNL1        0.0154
     14 C          61.3108   89.9730    9.9541 C.ar    1  UNL1        0.0124
     15 C          61.2251   88.4825   10.1002 C.ar    1  UNL1        0.0787
     16 C          62.0501   87.7821   11.1388 C.ar    1  UNL1        0.0645
     17 CL         61.9644   86.2917   11.2849 Cl      1  UNL1       -0.0818
     18 C          62.9607   88.5722   12.0314 C.ar    1  UNL1        0.0031
     19 C          63.7856   87.8717   13.0701 C.3     1  UNL1        0.0332
     20 C          60.3145   87.6926    9.2075 C.1     1  UNL1        0.1013
     21 N          59.4039   86.9026    8.3149 N.1     1  UNL1       -0.1908
     22 C          63.3442   89.4533   16.3489 C.3     1  UNL1        0.0018
     23 C          62.8832   90.2140   15.1411 C.3     1  UNL1        0.0220
@<TRIPOS>BOND
     1    22    23    1
     2     1    23    1
     3     1     2    1
     4     2     3    1
     5     3     4    1
     6     3     5    1
     7     5     6    1
     8     6     7    1
     9     7     8   am
    10     8     9    2
    11     8    10   am
    12    10    12    1
    13    12    13   ar
    14    13    14   ar
    15    14    15   ar
    16    15    20    1
    17    20    21    3
    18    15    16   ar
    19    16    17    1
    20    16    18   ar
    21    18    19    1
    22    10     1    1
    23    18    12   ar
    24     2     7    1
    25     4    11    1
@<TRIPOS>MOLECULE
*****
 23 25 0 0 0
SMALL
GASTEIGER

@<TRIPOS>ATOM
      1 C          63.2970   87.6978   12.5775 C.3     1  UNL1        0.1018
      2 C          62.9392   88.9486   11.8308 C.3     1  UNL1        0.1221
      3 C          63.1695   90.4292   11.7630 C.3     1  UNL1        0.1319
      4 O          64.0536   91.2267   12.6753 O.3     1  UNL1       -0.3827
      5 C          62.3603   90.9723   10.6227 C.3     1  UNL1        0.0525
      6 C          61.6300   89.8274    9.9858 C.3     1  UNL1        0.0976
      7 N          61.9878   88.5766   10.7325 N.am    1  UNL1       -0.2613
      8 C          61.7575   87.0959   10.8003 C.2     1  UNL1        0.3110
      9 O          60.8733   86.2984    9.8880 O.2     1  UNL1       -0.2520
     10 N          62.5666   86.5527   11.9407 N.am    1  UNL1       -0.2433
     11 H          63.5323   91.9245   13.1022 H       1  UNL1        0.2104
     12 C          62.6337   85.1168   12.3689 C.ar    1  UNL1        0.0521
     13 C          62.3148   84.7409   13.7856 C.ar    1  UNL1        0.0154
     14 C          62.3818   83.3050   14.2138 C.ar    1  UNL1        0.0124
     15 C          62.7678   82.2447   13.2253 C.ar    1  UNL1        0.0787
     16 C          63.0867   82.6205   11.8086 C.ar    1  UNL1        0.0645
     17 CL         63.4726   81.5604   10.8202 Cl      1  UNL1       -0.0818
     18 C          63.0196   84.0566   11.3804 C.ar    1  UNL1        0.0031
     19 C          63.3385   84.4324    9.9637 C.3     1  UNL1        0.0332
     20 C          62.8348   80.8087   13.6536 C.1     1  UNL1        0.1013
     21 N          62.9018   79.3727   14.0818 N.1     1  UNL1       -0.1908
     22 C          64.1519   88.6358   14.8445 C.3     1  UNL1        0.0018
     23 C          64.2225   87.6078   13.7545 C.3     1  UNL1        0.0220
@<TRIPOS>BOND
     1    22    23    1
     2     1    23    1
     3     1     2    1
     4     2     3    1
     5     3     4    1
     6     3     5    1
     7     5     6    1
     8     6     7    1
     9     7     8   am
    10     8     9    2
    11     8    10   am
    12    10    12    1
    13    12    13   ar
    14    13    14   ar
    15    14    15   ar
    16    15    20    1
    17    20    21    3
    18    15    16   ar
    19    16    17    1
    20    16    18   ar
    21    18    19    1
    22    10     1    1
    23    18    12   ar
    24     2     7    1
    25     4    11    1
@<TRIPOS>MOLECULE
*****
 23 25 0 0 0
SMALL
GASTEIGER

@<TRIPOS>ATOM
      1 C          62.3827   83.7683   13.9191 C.3     1  UNL1        0.1018
      2 C          62.3980   82.3522   13.4250 C.3     1  UNL1        0.1221
      3 C          61.9279   80.9587   13.7203 C.3     1  UNL1        0.1319
      4 O          61.1070   80.5372   14.9029 O.3     1  UNL1       -0.3827
      5 C          62.4227   80.0608   12.6254 C.3     1  UNL1        0.0525
      6 C          63.1987   80.8993   11.6533 C.3     1  UNL1        0.0976
      7 N          63.1834   82.3155   12.1475 N.am    1  UNL1       -0.2613
      8 C          63.6535   83.7089   11.8522 C.2     1  UNL1        0.3110
      9 O          64.4744   84.1305   10.6696 O.2     1  UNL1       -0.2520
     10 N          63.1587   84.6069   12.9472 N.am    1  UNL1       -0.2433
     11 H          61.5794   79.8476   15.3950 H       1  UNL1        0.2104
     12 C          63.3978   86.0840   13.0517 C.ar    1  UNL1        0.0521
     13 C          64.2100   86.6338   14.1867 C.ar    1  UNL1        0.0154
     14 C          64.4491   88.1109   14.2912 C.ar    1  UNL1        0.0124
     15 C          63.8760   89.0383   13.2608 C.ar    1  UNL1        0.0787
     16 C          63.0639   88.4885   12.1259 C.ar    1  UNL1        0.0645
     17 CL         62.4908   89.4158   11.0955 Cl      1  UNL1       -0.0818
     18 C          62.8248   87.0113   12.0214 C.ar    1  UNL1        0.0031
     19 C          62.0126   86.4615   10.8864 C.3     1  UNL1        0.0332
     20 C          64.1152   90.5154   13.3654 C.1     1  UNL1        0.1013
     21 N          64.3543   91.9925   13.4700 N.1     1  UNL1       -0.1908
     22 C          62.5322   84.7875   16.3043 C.3     1  UNL1        0.0018
     23 C          61.7097   84.2597   15.1663 C.3     1  UNL1        0.0220
@<TRIPOS>BOND
     1    22    23    1
     2     1    23    1
     3     1     2    1
     4     2     3    1
     5     3     4    1
     6     3     5    1
     7     5     6    1
     8     6     7    1
     9     7     8   am
    10     8     9    2
    11     8    10   am
    12    10    12    1
    13    12    13   ar
    14    13    14   ar
    15    14    15   ar
    16    15    20    1
    17    20    21    3
    18    15    16   ar
    19    16    17    1
    20    16    18   ar
    21    18    19    1
    22    10     1    1
    23    18    12   ar
    24     2     7    1
    25     4    11    1
@<TRIPOS>MOLECULE
*****
 23 25 0 0 0
SMALL
GASTEIGER

@<TRIPOS>ATOM
      1 C          63.9385   87.8327   14.6790 C.3     1  UNL1        0.1018
      2 C          63.4305   87.2212   15.9510 C.3     1  UNL1        0.1221
      3 C          63.0841   85.9242   16.6201 C.3     1  UNL1        0.1319
      4 O          63.1939   84.5593   16.0078 O.3     1  UNL1       -0.3827
      5 C          62.6086   86.2318   18.0091 C.3     1  UNL1        0.0525
      6 C          62.6612   87.7189   18.1984 C.3     1  UNL1        0.0976
      7 N          63.1691   88.3304   16.9264 N.am    1  UNL1       -0.2613
      8 C          63.5156   89.6274   16.2573 C.2     1  UNL1        0.3110
      9 O          63.4058   90.9923   16.8696 O.2     1  UNL1       -0.2520
     10 N          63.9911   89.3199   14.8682 N.am    1  UNL1       -0.2433
     11 H          62.3282   84.1225   16.0343 H       1  UNL1        0.2104
     12 C          64.4403   90.3232   13.8477 C.ar    1  UNL1        0.0521
     13 C          65.6573   91.1615   14.1051 C.ar    1  UNL1        0.0154
     14 C          66.1065   92.1648   13.0847 C.ar    1  UNL1        0.0124
     15 C          65.3387   92.3299   11.8066 C.ar    1  UNL1        0.0787
     16 C          64.1217   91.4917   11.5492 C.ar    1  UNL1        0.0645
     17 CL         63.3539   91.6568   10.2712 Cl      1  UNL1       -0.0818
     18 C          63.6725   90.4883   12.5697 C.ar    1  UNL1        0.0031
     19 C          62.4555   89.6501   12.3123 C.3     1  UNL1        0.0332
     20 C          65.7879   93.3333   10.7861 C.1     1  UNL1        0.1013
     21 N          66.2371   94.3366    9.7656 N.1     1  UNL1       -0.1908
     22 C          63.4418   85.9967   12.9092 C.3     1  UNL1        0.0018
     23 C          64.3259   87.0880   13.4359 C.3     1  UNL1        0.0220
@<TRIPOS>BOND
     1    22    23    1
     2     1    23    1
     3     1     2    1
     4     2     3    1
     5     3     4    1
     6     3     5    1
     7     5     6    1
     8     6     7    1
     9     7     8   am
    10     8     9    2
    11     8    10   am
    12    10    12    1
    13    12    13   ar
    14    13    14   ar
    15    14    15   ar
    16    15    20    1
    17    20    21    3
    18    15    16   ar
    19    16    17    1
    20    16    18   ar
    21    18    19    1
    22    10     1    1
    23    18    12   ar
    24     2     7    1
    25     4    11    1
@<TRIPOS>MOLECULE
*****
 23 25 0 0 0
SMALL
GASTEIGER

@<TRIPOS>ATOM
      1 C          63.0901   94.3661   -1.9793 C.3     1  UNL1        0.1018
      2 C          64.1283   95.1790   -2.6944 C.3     1  UNL1        0.1221
      3 C          64.7391   95.4581   -4.0357 C.3     1  UNL1        0.1319
      4 O          64.3494   94.8143   -5.3332 O.3     1  UNL1       -0.3827
      5 C          65.8081   96.4942   -3.8515 C.3     1  UNL1        0.0525
      6 C          65.8579   96.8553   -2.3965 C.3     1  UNL1        0.0976
      7 N          64.8197   96.0425   -1.6814 N.am    1  UNL1       -0.2613
      8 C          64.2089   95.7633   -0.3401 C.2     1  UNL1        0.3110
      9 O          64.5986   96.4071    0.9574 O.2     1  UNL1       -0.2520
     10 N          63.1399   94.7272   -0.5242 N.am    1  UNL1       -0.2433
     11 H          65.1255   94.3868   -5.7280 H       1  UNL1        0.2104
     12 C          62.2730   94.1531    0.5568 C.ar    1  UNL1        0.0521
     13 C          60.8479   94.6012    0.6927 C.ar    1  UNL1        0.0154
     14 C          59.9810   94.0271    1.7738 C.ar    1  UNL1        0.0124
     15 C          60.5391   93.0048    2.7191 C.ar    1  UNL1        0.0787
     16 C          61.9641   92.5567    2.5833 C.ar    1  UNL1        0.0645
     17 CL         62.5222   91.5344    3.5285 Cl      1  UNL1       -0.0818
     18 C          62.8310   93.1308    1.5021 C.ar    1  UNL1        0.0031
     19 C          64.2561   92.6827    1.3663 C.3     1  UNL1        0.0332
     20 C          59.6721   92.4307    3.8002 C.1     1  UNL1        0.1013
     21 N          58.8052   91.8566    4.8813 N.1     1  UNL1       -0.1908
     22 C          60.8256   93.8061   -3.1230 C.3     1  UNL1        0.0018
     23 C          62.1646   93.3674   -2.6086 C.3     1  UNL1        0.0220
@<TRIPOS>BOND
     1    22    23    1
     2     1    23    1
     3     1     2    1
     4     2     3    1
     5     3     4    1
     6     3     5    1
     7     5     6    1
     8     6     7    1
     9     7     8   am
    10     8     9    2
    11     8    10   am
    12    10    12    1
    13    12    13   ar
    14    13    14   ar
    15    14    15   ar
    16    15    20    1
    17    20    21    3
    18    15    16   ar
    19    16    17    1
    20    16    18   ar
    21    18    19    1
    22    10     1    1
    23    18    12   ar
    24     2     7    1
    25     4    11    1
