@<TRIPOS>MOLECULE
*****
 42 46 0 0 0
SMALL
GASTEIGER

@<TRIPOS>ATOM
      1 C          63.1184   88.5354   13.0483 C.3     1  UNL1        0.1244
      2 N          64.0311   88.4790   14.2373 N.3     1  UNL1       -0.2823
      3 C          64.7896   87.3037   14.7791 C.3     1  UNL1        0.1560
      4 C          64.8226   85.8946   14.2657 C.2     1  UNL1        0.2457
      5 O          65.7271   85.0831   15.1451 O.2     1  UNL1       -0.2730
      6 N          64.1052   85.3129   13.0837 N.am    1  UNL1       -0.2533
      7 C          63.1778   85.9965   12.1232 C.ar    1  UNL1        0.0518
      8 C          62.6734   85.0461   11.0781 C.ar    1  UNL1        0.0146
      9 C          61.7298   85.5299   10.0172 C.ar    1  UNL1        0.0013
     10 C          61.2906   86.9641   10.0015 C.ar    1  UNL1       -0.0002
     11 C          61.7950   87.9144   11.0466 C.ar    1  UNL1       -0.0014
     12 C          62.7385   87.4306   12.1075 C.ar    1  UNL1        0.0118
     13 H          63.4539   88.7924   15.0177 H       1  UNL1        0.1243
     14 C          62.1909   89.2191   12.0878 C.ar    1  UNL1       -0.0019
     15 C          62.7006   89.6859   10.7566 C.ar    1  UNL1       -0.0026
     16 C          61.7732   90.3695    9.7961 C.ar    1  UNL1       -0.0003
     17 C          60.3360   90.5862   10.1668 C.ar    1  UNL1       -0.0000
     18 C          59.8262   90.1194   11.4981 C.ar    1  UNL1       -0.0003
     19 C          60.7537   89.4358   12.4586 C.ar    1  UNL1       -0.0026
     20 C          63.0854   89.9445   13.5617 C.3     1  UNL1        0.2256
     21 C          62.8140   90.2077   15.0133 C.2     1  UNL1        0.0920
     22 O          61.8360   89.3505   15.7609 O.co2   1  UNL1       -0.5455
     23 O          63.5205   91.3280   15.7172 O.co2   1  UNL1       -0.5455
     24 O          63.3237   91.0903   12.6235 O.3     1  UNL1       -0.4426
     25 C          66.8513   93.6102    9.7588 C.3     1  UNL1        0.0523
     26 C          66.4685   92.9133   11.0307 C.ar    1  UNL1        0.0652
     27 C          67.4669   92.7794   12.1422 C.ar    1  UNL1        0.0297
     28 C          67.0841   92.0825   13.4142 C.ar    1  UNL1        0.0652
     29 C          68.0825   91.9486   14.5257 C.3     1  UNL1        0.0523
     30 N          65.7031   91.5195   13.5746 N.ar    1  UNL1       -0.1986
     31 C          64.7048   91.6534   12.4630 C.ar    1  UNL1        0.3196
     32 N          65.0876   92.3503   11.1911 N.ar    1  UNL1       -0.1986
     33 C          64.3474   83.8548   12.8285 C.3     1  UNL1        0.1292
     34 C          63.2929   82.8469   13.1783 C.ar    1  UNL1        0.0531
     35 C          62.5026   82.9969   14.4443 C.ar    1  UNL1        0.1422
     36 F          62.6349   84.0857   15.4675 F       1  UNL1       -0.2043
     37 C          61.4481   81.9891   14.7940 C.ar    1  UNL1        0.0591
     38 C          61.1839   80.8312   13.8777 C.ar    1  UNL1        0.1446
     39 F          60.1294   79.8234   14.2274 F       1  UNL1       -0.2040
     40 C          61.9742   80.6813   12.6117 C.ar    1  UNL1        0.0591
     41 C          63.0287   81.6891   12.2619 C.ar    1  UNL1        0.1422
     42 F          63.8191   81.5391   10.9959 F       1  UNL1       -0.2043
@<TRIPOS>UNITY_ATOM_ATTR
22 1
charge -1
@<TRIPOS>BOND
     1    25    26    1
     2    26    27   ar
     3    27    28   ar
     4    28    29    1
     5    28    30   ar
     6    30    31   ar
     7    31    24    1
     8    20    24    1
     9    20    21    1
    10    21    22   ar
    11    21    23   ar
    12    20     1    1
    13     1    14    1
    14    14    15   ar
    15    15    16   ar
    16    16    17   ar
    17    17    18   ar
    18    18    19   ar
    19     1     2    1
    20     2     3    1
    21     3     4    1
    22     4     5    2
    23     4     6   am
    24     6    33    1
    25    33    34    1
    26    34    35   ar
    27    35    36    1
    28    35    37   ar
    29    37    38   ar
    30    38    39    1
    31    38    40   ar
    32    40    41   ar
    33    41    42    1
    34     6     7    1
    35     7     8   ar
    36     8     9   ar
    37     9    10   ar
    38    10    11   ar
    39    11    12   ar
    40    31    32   ar
    41    32    26   ar
    42    12     1    1
    43    19    14   ar
    44    41    34   ar
    45    12     7   ar
    46     2    13    1
@<TRIPOS>MOLECULE
*****
 42 46 0 0 0
SMALL
GASTEIGER

@<TRIPOS>ATOM
      1 C          63.1161   88.5367   13.0402 C.3     1  UNL1        0.1244
      2 N          64.0290   88.4823   14.2292 N.3     1  UNL1       -0.2823
      3 C          64.7879   87.3081   14.7726 C.3     1  UNL1        0.1560
      4 C          64.8213   85.8983   14.2614 C.2     1  UNL1        0.2457
      5 O          65.7261   85.0883   15.1419 O.2     1  UNL1       -0.2730
      6 N          64.1041   85.3146   13.0803 N.am    1  UNL1       -0.2533
      7 C          63.1763   85.9964   12.1188 C.ar    1  UNL1        0.0518
      8 C          62.6722   85.0443   11.0751 C.ar    1  UNL1        0.0146
      9 C          61.7284   85.5262   10.0136 C.ar    1  UNL1        0.0013
     10 C          61.2887   86.9602    9.9957 C.ar    1  UNL1       -0.0002
     11 C          61.7928   87.9123   11.0394 C.ar    1  UNL1       -0.0014
     12 C          62.7366   87.4304   12.1010 C.ar    1  UNL1        0.0118
     13 H          63.4517   88.7966   15.0091 H       1  UNL1        0.1243
     14 C          62.1883   89.2185   12.0787 C.ar    1  UNL1       -0.0019
     15 C          60.7510   89.4350   12.4491 C.ar    1  UNL1       -0.0026
     16 C          59.8232   90.1168   11.4877 C.ar    1  UNL1       -0.0003
     17 C          60.3328   90.5822   10.1559 C.ar    1  UNL1       -0.0000
     18 C          61.7702   90.3658    9.7855 C.ar    1  UNL1       -0.0003
     19 C          62.6979   89.6839   10.7469 C.ar    1  UNL1       -0.0026
     20 C          63.0827   89.9465   13.5515 C.3     1  UNL1        0.2256
     21 C          62.8146   90.2115   15.0033 C.2     1  UNL1        0.0920
     22 O          61.8290   89.3633   15.7511 O.co2   1  UNL1       -0.5455
     23 O          63.5322   91.3248   15.7074 O.co2   1  UNL1       -0.5455
     24 O          63.3172   91.0911   12.6109 O.3     1  UNL1       -0.4426
     25 C          68.0811   91.9497   14.4999 C.3     1  UNL1        0.0523
     26 C          67.0786   92.0867   13.3926 C.ar    1  UNL1        0.0652
     27 C          67.4555   92.7900   12.1224 C.ar    1  UNL1        0.0297
     28 C          66.4530   92.9269   11.0151 C.ar    1  UNL1        0.0652
     29 C          66.8300   93.6302    9.7448 C.3     1  UNL1        0.0523
     30 N          65.0737   92.3607   11.1779 N.ar    1  UNL1       -0.1986
     31 C          64.6967   91.6574   12.4481 C.ar    1  UNL1        0.3196
     32 N          65.6992   91.5204   13.5554 N.ar    1  UNL1       -0.1986
     33 C          64.3468   83.8561   12.8272 C.3     1  UNL1        0.1292
     34 C          63.2924   82.8484   13.1780 C.ar    1  UNL1        0.0531
     35 C          62.5010   83.0004   14.4431 C.ar    1  UNL1        0.1422
     36 F          62.6321   84.0911   15.4644 F       1  UNL1       -0.2043
     37 C          61.4467   81.9928   14.7938 C.ar    1  UNL1        0.0591
     38 C          61.1837   80.8332   13.8794 C.ar    1  UNL1        0.1446
     39 F          60.1293   79.8255   14.2301 F       1  UNL1       -0.2040
     40 C          61.9751   80.6812   12.6143 C.ar    1  UNL1        0.0591
     41 C          63.0294   81.6888   12.2635 C.ar    1  UNL1        0.1422
     42 F          63.8208   81.5369   10.9983 F       1  UNL1       -0.2043
@<TRIPOS>UNITY_ATOM_ATTR
22 1
charge -1
@<TRIPOS>BOND
     1    25    26    1
     2    26    27   ar
     3    27    28   ar
     4    28    29    1
     5    28    30   ar
     6    30    31   ar
     7    31    24    1
     8    20    24    1
     9    20    21    1
    10    21    22   ar
    11    21    23   ar
    12    20     1    1
    13     1    14    1
    14    14    15   ar
    15    15    16   ar
    16    16    17   ar
    17    17    18   ar
    18    18    19   ar
    19     1     2    1
    20     2     3    1
    21     3     4    1
    22     4     5    2
    23     4     6   am
    24     6    33    1
    25    33    34    1
    26    34    35   ar
    27    35    36    1
    28    35    37   ar
    29    37    38   ar
    30    38    39    1
    31    38    40   ar
    32    40    41   ar
    33    41    42    1
    34     6     7    1
    35     7     8   ar
    36     8     9   ar
    37     9    10   ar
    38    10    11   ar
    39    11    12   ar
    40    31    32   ar
    41    32    26   ar
    42    12     1    1
    43    19    14   ar
    44    41    34   ar
    45    12     7   ar
    46     2    13    1
@<TRIPOS>MOLECULE
*****
 42 46 0 0 0
SMALL
GASTEIGER

@<TRIPOS>ATOM
      1 C          61.8210   88.4646   11.4887 C.3     1  UNL1        0.1244
      2 N          62.3508   89.0140   12.7800 N.3     1  UNL1       -0.2823
      3 C          63.2316   88.3417   13.7911 C.3     1  UNL1        0.1560
      4 C          63.8001   86.9539   13.7606 C.2     1  UNL1        0.2457
      5 O          64.6201   86.7424   14.9986 O.2     1  UNL1       -0.2730
      6 N          63.6282   85.8958   12.7114 N.am    1  UNL1       -0.2533
      7 C          62.8454   85.9639   11.4336 C.ar    1  UNL1        0.0518
      8 C          62.9359   84.6783   10.6662 C.ar    1  UNL1        0.0146
      9 C          62.2221   84.5359    9.3547 C.ar    1  UNL1        0.0013
     10 C          61.4178   85.6792    8.8106 C.ar    1  UNL1       -0.0002
     11 C          61.3273   86.9648    9.5780 C.ar    1  UNL1       -0.0014
     12 C          62.0411   87.1072   10.8895 C.ar    1  UNL1        0.0118
     13 H          61.5180   89.2819   13.3045 H       1  UNL1        0.1243
     14 C          61.0381   88.5328   10.2110 C.ar    1  UNL1       -0.0019
     15 C          59.7204   87.8248   10.1000 C.ar    1  UNL1       -0.0026
     16 C          58.9376   87.8930    8.8224 C.ar    1  UNL1       -0.0003
     17 C          59.4725   88.6692    7.6556 C.ar    1  UNL1       -0.0000
     18 C          60.7903   89.3773    7.7665 C.ar    1  UNL1       -0.0003
     19 C          61.5731   89.3090    9.0442 C.ar    1  UNL1       -0.0026
     20 C          61.2525   89.8523   11.5192 C.3     1  UNL1        0.2256
     21 C          59.9144   90.1009   12.1499 C.2     1  UNL1        0.0920
     22 O          58.9966   91.1399   11.5769 O.co2   1  UNL1       -0.5455
     23 O          59.4941   89.3106   13.3535 O.co2   1  UNL1       -0.5455
     24 O          62.0220   90.9914   10.9191 O.3     1  UNL1       -0.4426
     25 C          66.8238   92.8882   10.3317 C.3     1  UNL1        0.0523
     26 C          65.7391   92.3496   11.2167 C.ar    1  UNL1        0.0652
     27 C          65.9706   92.2209   12.6932 C.ar    1  UNL1        0.0297
     28 C          64.8859   91.6824   13.5783 C.ar    1  UNL1        0.0652
     29 C          65.1174   91.5536   15.0547 C.3     1  UNL1        0.0523
     30 N          63.5698   91.2726   12.9869 N.ar    1  UNL1       -0.1986
     31 C          63.3383   91.4013   11.5104 C.ar    1  UNL1        0.3196
     32 N          64.4230   91.9398   10.6254 N.ar    1  UNL1       -0.1986
     33 C          64.3323   84.5977   12.9748 C.3     1  UNL1        0.1292
     34 C          63.5377   83.3434   13.1883 C.ar    1  UNL1        0.0531
     35 C          62.4731   83.3006   14.2440 C.ar    1  UNL1        0.1422
     36 F          62.0740   84.4118   15.1693 F       1  UNL1       -0.2043
     37 C          61.6786   82.0464   14.4576 C.ar    1  UNL1        0.0591
     38 C          61.9488   80.8349   13.6154 C.ar    1  UNL1        0.1446
     39 F          61.1543   79.5806   13.8290 F       1  UNL1       -0.2040
     40 C          63.0134   80.8777   12.5597 C.ar    1  UNL1        0.0591
     41 C          63.8079   82.1319   12.3461 C.ar    1  UNL1        0.1422
     42 F          64.8727   82.1747   11.2904 F       1  UNL1       -0.2043
@<TRIPOS>UNITY_ATOM_ATTR
22 1
charge -1
@<TRIPOS>BOND
     1    25    26    1
     2    26    27   ar
     3    27    28   ar
     4    28    29    1
     5    28    30   ar
     6    30    31   ar
     7    31    24    1
     8    20    24    1
     9    20    21    1
    10    21    22   ar
    11    21    23   ar
    12    20     1    1
    13     1    14    1
    14    14    15   ar
    15    15    16   ar
    16    16    17   ar
    17    17    18   ar
    18    18    19   ar
    19     1     2    1
    20     2     3    1
    21     3     4    1
    22     4     5    2
    23     4     6   am
    24     6    33    1
    25    33    34    1
    26    34    35   ar
    27    35    36    1
    28    35    37   ar
    29    37    38   ar
    30    38    39    1
    31    38    40   ar
    32    40    41   ar
    33    41    42    1
    34     6     7    1
    35     7     8   ar
    36     8     9   ar
    37     9    10   ar
    38    10    11   ar
    39    11    12   ar
    40    31    32   ar
    41    32    26   ar
    42    12     1    1
    43    19    14   ar
    44    41    34   ar
    45    12     7   ar
    46     2    13    1
@<TRIPOS>MOLECULE
*****
 42 46 0 0 0
SMALL
GASTEIGER

@<TRIPOS>ATOM
      1 C          61.8198   88.4687   11.4781 C.3     1  UNL1        0.1244
      2 N          62.3497   89.0202   12.7685 N.3     1  UNL1       -0.2823
      3 C          63.2302   88.3493   13.7808 C.3     1  UNL1        0.1560
      4 C          63.7982   86.9612   13.7527 C.2     1  UNL1        0.2457
      5 O          64.6180   86.7516   14.9912 O.2     1  UNL1       -0.2730
      6 N          63.6260   85.9014   12.7053 N.am    1  UNL1       -0.2533
      7 C          62.8433   85.9676   11.4274 C.ar    1  UNL1        0.0518
      8 C          62.9334   84.6807   10.6622 C.ar    1  UNL1        0.0146
      9 C          62.2197   84.5363    9.3509 C.ar    1  UNL1        0.0013
     10 C          61.4159   85.6789    8.8047 C.ar    1  UNL1       -0.0002
     11 C          61.3258   86.9659    9.5699 C.ar    1  UNL1       -0.0014
     12 C          62.0395   87.1102   10.8813 C.ar    1  UNL1        0.0118
     13 H          61.5170   89.2893   13.2925 H       1  UNL1        0.1243
     14 C          61.0371   88.5351   10.2002 C.ar    1  UNL1       -0.0019
     15 C          59.7172   87.8308   10.0917 C.ar    1  UNL1       -0.0026
     16 C          58.9345   87.8971    8.8139 C.ar    1  UNL1       -0.0003
     17 C          59.4717   88.6677    7.6445 C.ar    1  UNL1       -0.0000
     18 C          60.7917   89.3720    7.7529 C.ar    1  UNL1       -0.0003
     19 C          61.5744   89.3057    9.0308 C.ar    1  UNL1       -0.0026
     20 C          61.2518   89.8568   11.5062 C.3     1  UNL1        0.2256
     21 C          59.9127   90.1065   12.1344 C.2     1  UNL1        0.0920
     22 O          58.9932   91.1399   11.5541 O.co2   1  UNL1       -0.5455
     23 O          59.4932   89.3230   13.3426 O.co2   1  UNL1       -0.5455
     24 O          62.0228   90.9949   10.9062 O.3     1  UNL1       -0.4426
     25 C          65.1131   91.5545   15.0459 C.3     1  UNL1        0.0523
     26 C          64.8832   91.6849   13.5694 C.ar    1  UNL1        0.0652
     27 C          65.9684   92.2255   12.6862 C.ar    1  UNL1        0.0297
     28 C          65.7385   92.3559   11.2096 C.ar    1  UNL1        0.0652
     29 C          66.8237   92.8965   10.3264 C.3     1  UNL1        0.0523
     30 N          64.4233   91.9457   10.6164 N.ar    1  UNL1       -0.1986
     31 C          63.3381   91.4051   11.4996 C.ar    1  UNL1        0.3196
     32 N          63.5680   91.2747   12.9761 N.ar    1  UNL1       -0.1986
     33 C          64.3296   84.6035   12.9710 C.3     1  UNL1        0.1292
     34 C          63.5346   83.3496   13.1851 C.ar    1  UNL1        0.0531
     35 C          62.4688   83.3081   14.2396 C.ar    1  UNL1        0.1422
     36 F          62.0689   84.4204   15.1632 F       1  UNL1       -0.2043
     37 C          61.6738   82.0543   14.4538 C.ar    1  UNL1        0.0591
     38 C          61.9448   80.8418   13.6132 C.ar    1  UNL1        0.1446
     39 F          61.1499   79.5878   13.8273 F       1  UNL1       -0.2040
     40 C          63.0106   80.8832   12.5587 C.ar    1  UNL1        0.0591
     41 C          63.8056   82.1371   12.3445 C.ar    1  UNL1        0.1422
     42 F          64.8715   82.1785   11.2899 F       1  UNL1       -0.2043
@<TRIPOS>UNITY_ATOM_ATTR
22 1
charge -1
@<TRIPOS>BOND
     1    25    26    1
     2    26    27   ar
     3    27    28   ar
     4    28    29    1
     5    28    30   ar
     6    30    31   ar
     7    31    24    1
     8    20    24    1
     9    20    21    1
    10    21    22   ar
    11    21    23   ar
    12    20     1    1
    13     1    14    1
    14    14    15   ar
    15    15    16   ar
    16    16    17   ar
    17    17    18   ar
    18    18    19   ar
    19     1     2    1
    20     2     3    1
    21     3     4    1
    22     4     5    2
    23     4     6   am
    24     6    33    1
    25    33    34    1
    26    34    35   ar
    27    35    36    1
    28    35    37   ar
    29    37    38   ar
    30    38    39    1
    31    38    40   ar
    32    40    41   ar
    33    41    42    1
    34     6     7    1
    35     7     8   ar
    36     8     9   ar
    37     9    10   ar
    38    10    11   ar
    39    11    12   ar
    40    31    32   ar
    41    32    26   ar
    42    12     1    1
    43    19    14   ar
    44    41    34   ar
    45    12     7   ar
    46     2    13    1
