@<TRIPOS>MOLECULE
*****
 33 37 0 0 0
SMALL
GASTEIGER

@<TRIPOS>ATOM
      1 C          64.1354   90.9616   13.1749 C.3     1  UNL1        0.0790
      2 C          63.6898   91.7608   11.9863 C.3     1  UNL1        0.0216
      3 C          62.7140   91.1732   11.0104 C.3     1  UNL1        0.0219
      4 C          62.1837   89.7862   11.2231 C.3     1  UNL1        0.0815
      5 C          62.6293   88.9870   12.4117 C.3     1  UNL1        0.0219
      6 C          63.6051   89.5747   13.3876 C.3     1  UNL1        0.0216
      7 N          61.2078   89.1985   10.2472 N.am    1  UNL1       -0.2423
      8 C          59.8367   89.7265    9.9451 C.2     1  UNL1        0.3309
      9 O          59.2007   90.9349   10.5659 O.2     1  UNL1       -0.2501
     10 N          59.2133   88.8339    8.9133 N.am    1  UNL1       -0.1647
     11 C          60.1991   87.7543    8.5777 C.2     1  UNL1        0.0715
     12 C          60.1336   86.5952    7.6280 C.3     1  UNL1        0.0836
     13 C          61.3007   85.6614    7.5026 C.2     1  UNL1        0.0794
     14 C          62.5334   85.8867    8.3271 C.2     1  UNL1        0.1473
     15 F          63.7006   84.9528    8.2017 F       1  UNL1       -0.2037
     16 C          62.5990   87.0458    9.2768 C.2     1  UNL1        0.0459
     17 C          61.4318   87.9796    9.4022 C.2     1  UNL1        0.0691
     18 C          61.2352   84.5022    6.5528 C.1     1  UNL1        0.0987
     19 N          61.1697   83.3430    5.6030 N.1     1  UNL1       -0.1911
     20 C          67.9280   93.2128   16.1731 C.3     1  UNL1        0.0458
     21 C          67.0487   92.6746   15.0837 C.3     1  UNL1        0.1581
     22 C          68.1043   93.2290   14.1736 C.3     1  UNL1        0.0458
     23 O          66.1769   92.2326   16.2215 O.3     1  UNL1       -0.4398
     24 C          64.9795   91.5372   15.6450 C.2     1  UNL1        0.4049
     25 O          63.8488   90.9352   16.4255 O.2     1  UNL1       -0.2262
     26 N          65.1112   91.5493   14.1508 N.am    1  UNL1       -0.2421
     27 C          66.3901   92.2523   13.8039 C.3     1  UNL1        0.1375
     28 C          66.9176   92.4910   12.4202 C.ar    1  UNL1       -0.0008
     29 C          66.3866   93.6298   11.6011 C.ar    1  UNL1       -0.0026
     30 C          66.9141   93.8685   10.2174 C.ar    1  UNL1       -0.0003
     31 C          67.9728   92.9684    9.6527 C.ar    1  UNL1       -0.0000
     32 C          68.5039   91.8295   10.4718 C.ar    1  UNL1       -0.0003
     33 C          67.9763   91.5908   11.8555 C.ar    1  UNL1       -0.0026
@<TRIPOS>BOND
     1    20    21    1
     2    21    22    1
     3    21    23    1
     4    23    24    1
     5    24    25    2
     6    24    26   am
     7     1    26    1
     8     1     2    1
     9     2     3    1
    10     3     4    1
    11     4     7    1
    12     7     8   am
    13     8     9    2
    14     8    10    1
    15    10    11    2
    16    11    12    1
    17    12    13    1
    18    13    18    1
    19    18    19    3
    20    13    14    2
    21    14    15    1
    22    14    16    1
    23    16    17    2
    24     4     5    1
    25     5     6    1
    26    26    27    1
    27    27    28    1
    28    28    29   ar
    29    29    30   ar
    30    30    31   ar
    31    31    32   ar
    32    32    33   ar
    33    27    21    1
    34    33    28   ar
    35     6     1    1
    36    17     7    1
    37    17    11    1
@<TRIPOS>MOLECULE
*****
 33 37 0 0 0
SMALL
GASTEIGER

@<TRIPOS>ATOM
      1 C          64.3405   90.2878   12.6981 C.3     1  UNL1        0.0790
      2 C          63.5066   89.2599   11.9924 C.3     1  UNL1        0.0216
      3 C          63.1879   87.9596   12.6689 C.3     1  UNL1        0.0219
      4 C          63.7030   87.6872   14.0512 C.3     1  UNL1        0.0815
      5 C          64.5369   88.7151   14.7568 C.3     1  UNL1        0.0219
      6 C          64.8556   90.0154   14.0803 C.3     1  UNL1        0.0216
      7 N          63.3843   86.3869   14.7276 N.am    1  UNL1       -0.2423
      8 C          63.1368   86.1936   16.1944 C.2     1  UNL1        0.3309
      9 O          63.1646   87.2666   17.2422 O.2     1  UNL1       -0.2501
     10 N          62.8566   84.7388   16.4293 N.am    1  UNL1       -0.1647
     11 C          62.9309   84.0331   15.1078 C.2     1  UNL1        0.0715
     12 C          62.7438   82.5946   14.7263 C.3     1  UNL1        0.0836
     13 C          62.8828   82.1746   13.2930 C.2     1  UNL1        0.0794
     14 C          63.2089   83.1932   12.2413 C.2     1  UNL1        0.1473
     15 F          63.3479   82.7732   10.8080 F       1  UNL1       -0.2037
     16 C          63.3961   84.6317   12.6228 C.2     1  UNL1        0.0459
     17 C          63.2571   85.0517   14.0561 C.2     1  UNL1        0.0691
     18 C          62.6957   80.7361   12.9114 C.1     1  UNL1        0.0987
     19 N          62.5086   79.2976   12.5298 N.1     1  UNL1       -0.1911
     20 C          65.8602   95.0073   10.7337 C.3     1  UNL1        0.0458
     21 C          65.6472   93.7472   11.5191 C.3     1  UNL1        0.1581
     22 C          66.6866   94.3271   12.4319 C.3     1  UNL1        0.0458
     23 O          64.6523   93.4308   10.4420 O.3     1  UNL1       -0.4398
     24 C          64.0417   92.0963   10.7526 C.2     1  UNL1        0.4049
     25 O          62.9970   91.3935    9.9374 O.2     1  UNL1       -0.2262
     26 N          64.6593   91.5881   12.0216 N.am    1  UNL1       -0.2421
     27 C          65.6515   92.6084   12.4953 C.3     1  UNL1        0.1375
     28 C          66.4993   92.5075   13.7286 C.ar    1  UNL1       -0.0008
     29 C          67.8976   91.9727   13.6360 C.ar    1  UNL1       -0.0026
     30 C          68.7453   91.8718   14.8693 C.ar    1  UNL1       -0.0003
     31 C          68.1948   92.3059   16.1954 C.ar    1  UNL1       -0.0000
     32 C          66.7965   92.8407   16.2881 C.ar    1  UNL1       -0.0003
     33 C          65.9487   92.9416   15.0547 C.ar    1  UNL1       -0.0026
@<TRIPOS>BOND
     1    20    21    1
     2    21    22    1
     3    21    23    1
     4    23    24    1
     5    24    25    2
     6    24    26   am
     7     1    26    1
     8     1     2    1
     9     2     3    1
    10     3     4    1
    11     4     7    1
    12     7     8   am
    13     8     9    2
    14     8    10    1
    15    10    11    2
    16    11    12    1
    17    12    13    1
    18    13    18    1
    19    18    19    3
    20    13    14    2
    21    14    15    1
    22    14    16    1
    23    16    17    2
    24     4     5    1
    25     5     6    1
    26    26    27    1
    27    27    28    1
    28    28    29   ar
    29    29    30   ar
    30    30    31   ar
    31    31    32   ar
    32    32    33   ar
    33    27    21    1
    34    33    28   ar
    35     6     1    1
    36    17     7    1
    37    17    11    1
@<TRIPOS>MOLECULE
*****
 33 37 0 0 0
SMALL
GASTEIGER

@<TRIPOS>ATOM
      1 C          63.3789   86.3542   13.9709 C.3     1  UNL1        0.0790
      2 C          64.1791   87.0947   15.0011 C.3     1  UNL1        0.0216
      3 C          64.6018   88.5112   14.7467 C.3     1  UNL1        0.0219
      4 C          64.2243   89.1874   13.4620 C.3     1  UNL1        0.0815
      5 C          63.4242   88.4469   12.4318 C.3     1  UNL1        0.0219
      6 C          63.0014   87.0303   12.6862 C.3     1  UNL1        0.0216
      7 N          64.6470   90.6039   13.2076 N.am    1  UNL1       -0.2423
      8 C          64.1024   91.5088   12.1424 C.2     1  UNL1        0.3309
      9 O          63.0393   91.1560   11.1446 O.2     1  UNL1       -0.2501
     10 N          64.8074   92.8283   12.2502 N.am    1  UNL1       -0.1647
     11 C          65.7877   92.7391   13.3820 C.2     1  UNL1        0.0715
     12 C          66.7579   93.7320   13.9502 C.3     1  UNL1        0.0836
     13 C          67.6289   93.3501   15.1101 C.2     1  UNL1        0.0794
     14 C          67.5298   91.9753   15.7018 C.2     1  UNL1        0.1473
     15 F          68.4009   91.5934   16.8618 F       1  UNL1       -0.2037
     16 C          66.5597   90.9823   15.1336 C.2     1  UNL1        0.0459
     17 C          65.6886   91.3642   13.9737 C.2     1  UNL1        0.0691
     18 C          68.5991   94.3430   15.6784 C.1     1  UNL1        0.0987
     19 N          69.5692   95.3359   16.2467 N.1     1  UNL1       -0.1911
     20 C          61.9249   81.2331   14.2895 C.3     1  UNL1        0.0458
     21 C          62.3558   82.6112   13.8831 C.3     1  UNL1        0.1581
     22 C          62.3660   82.0295   12.5005 C.3     1  UNL1        0.0458
     23 O          62.2555   82.9047   15.3506 O.3     1  UNL1       -0.4398
     24 C          62.6266   84.3426   15.5622 C.2     1  UNL1        0.4049
     25 O          62.6618   85.0595   16.8793 O.2     1  UNL1       -0.2262
     26 N          62.9562   84.9377   14.2253 N.am    1  UNL1       -0.2421
     27 C          62.7888   83.8676   13.1875 C.3     1  UNL1        0.1375
     28 C          63.0148   84.0262   11.7132 C.ar    1  UNL1       -0.0008
     29 C          62.1258   84.9295   10.9110 C.ar    1  UNL1       -0.0026
     30 C          62.3518   85.0881    9.4366 C.ar    1  UNL1       -0.0003
     31 C          63.4669   84.3433    8.7644 C.ar    1  UNL1       -0.0000
     32 C          64.3559   83.4400    9.5666 C.ar    1  UNL1       -0.0003
     33 C          64.1299   83.2814   11.0410 C.ar    1  UNL1       -0.0026
@<TRIPOS>BOND
     1    20    21    1
     2    21    22    1
     3    21    23    1
     4    23    24    1
     5    24    25    2
     6    24    26   am
     7     1    26    1
     8     1     2    1
     9     2     3    1
    10     3     4    1
    11     4     7    1
    12     7     8   am
    13     8     9    2
    14     8    10    1
    15    10    11    2
    16    11    12    1
    17    12    13    1
    18    13    18    1
    19    18    19    3
    20    13    14    2
    21    14    15    1
    22    14    16    1
    23    16    17    2
    24     4     5    1
    25     5     6    1
    26    26    27    1
    27    27    28    1
    28    28    29   ar
    29    29    30   ar
    30    30    31   ar
    31    31    32   ar
    32    32    33   ar
    33    27    21    1
    34    33    28   ar
    35     6     1    1
    36    17     7    1
    37    17    11    1
@<TRIPOS>MOLECULE
*****
 33 37 0 0 0
SMALL
GASTEIGER

@<TRIPOS>ATOM
      1 C          61.8431   88.2602   10.8060 C.3     1  UNL1        0.0790
      2 C          61.2759   89.5725   11.2600 C.3     1  UNL1        0.0216
      3 C          61.8133   90.2353   12.4937 C.3     1  UNL1        0.0219
      4 C          62.9180   89.5856   13.2735 C.3     1  UNL1        0.0815
      5 C          63.4851   88.2734   12.8194 C.3     1  UNL1        0.0219
      6 C          62.9477   87.6106   11.5857 C.3     1  UNL1        0.0216
      7 N          63.4554   90.2483   14.5072 N.am    1  UNL1       -0.2423
      8 C          62.8621   90.1651   15.8823 C.2     1  UNL1        0.3309
      9 O          61.6273   89.4044   16.2653 O.2     1  UNL1       -0.2501
     10 N          63.7205   90.9760   16.8073 N.am    1  UNL1       -0.1647
     11 C          64.8443   91.5604   16.0038 C.2     1  UNL1        0.0715
     12 C          65.9956   92.4440   16.3830 C.3     1  UNL1        0.0836
     13 C          66.9830   92.8778   15.3406 C.2     1  UNL1        0.0794
     14 C          66.8191   92.4281   13.9190 C.2     1  UNL1        0.1473
     15 F          67.8067   92.8620   12.8765 F       1  UNL1       -0.2037
     16 C          65.6679   91.5446   13.5398 C.2     1  UNL1        0.0459
     17 C          64.6804   91.1107   14.5822 C.2     1  UNL1        0.0691
     18 C          68.1344   93.7614   15.7197 C.1     1  UNL1        0.0987
     19 N          69.2857   94.6450   16.0989 N.1     1  UNL1       -0.1911
     20 C          60.2239   85.4168    6.5948 C.3     1  UNL1        0.0458
     21 C          60.8323   85.9432    7.8608 C.3     1  UNL1        0.1581
     22 C          61.4121   84.5641    7.9698 C.3     1  UNL1        0.0458
     23 O          60.1252   87.2122    7.4870 O.3     1  UNL1       -0.4398
     24 C          60.4178   88.2347    8.5449 C.2     1  UNL1        0.4049
     25 O          59.9115   89.6464    8.5707 O.2     1  UNL1       -0.2262
     26 N          61.3057   87.5975    9.5723 N.am    1  UNL1       -0.2421
     27 C          61.5619   86.1813    9.1495 C.3     1  UNL1        0.1375
     28 C          62.4003   85.1791    9.8862 C.ar    1  UNL1       -0.0008
     29 C          63.5643   84.5268    9.2010 C.ar    1  UNL1       -0.0026
     30 C          64.4028   83.5246    9.9376 C.ar    1  UNL1       -0.0003
     31 C          64.0773   83.1749   11.3595 C.ar    1  UNL1       -0.0000
     32 C          62.9134   83.8272   12.0447 C.ar    1  UNL1       -0.0003
     33 C          62.0749   84.8294   11.3080 C.ar    1  UNL1       -0.0026
@<TRIPOS>BOND
     1    20    21    1
     2    21    22    1
     3    21    23    1
     4    23    24    1
     5    24    25    2
     6    24    26   am
     7     1    26    1
     8     1     2    1
     9     2     3    1
    10     3     4    1
    11     4     7    1
    12     7     8   am
    13     8     9    2
    14     8    10    1
    15    10    11    2
    16    11    12    1
    17    12    13    1
    18    13    18    1
    19    18    19    3
    20    13    14    2
    21    14    15    1
    22    14    16    1
    23    16    17    2
    24     4     5    1
    25     5     6    1
    26    26    27    1
    27    27    28    1
    28    28    29   ar
    29    29    30   ar
    30    30    31   ar
    31    31    32   ar
    32    32    33   ar
    33    27    21    1
    34    33    28   ar
    35     6     1    1
    36    17     7    1
    37    17    11    1
@<TRIPOS>MOLECULE
*****
 33 37 0 0 0
SMALL
GASTEIGER

@<TRIPOS>ATOM
      1 C          63.7763   86.0292   13.6598 C.3     1  UNL1        0.0790
      2 C          64.5644   86.4649   14.8594 C.3     1  UNL1        0.0216
      3 C          64.8388   87.9218   15.0878 C.3     1  UNL1        0.0219
      4 C          64.3251   88.9431   14.1165 C.3     1  UNL1        0.0815
      5 C          63.5371   88.5073   12.9170 C.3     1  UNL1        0.0219
      6 C          63.2627   87.0505   12.6886 C.3     1  UNL1        0.0216
      7 N          64.5995   90.4000   14.3449 N.am    1  UNL1       -0.2423
      8 C          64.3419   91.1573   15.6138 C.2     1  UNL1        0.3309
      9 O          63.7645   90.5908   16.8770 O.2     1  UNL1       -0.2501
     10 N          64.7629   92.5807   15.3976 N.am    1  UNL1       -0.1647
     11 C          65.2808   92.7030   13.9951 C.2     1  UNL1        0.0715
     12 C          65.8312   93.8675   13.2265 C.3     1  UNL1        0.0836
     13 C          66.2807   93.6842   11.8072 C.2     1  UNL1        0.0794
     14 C          66.1798   92.3364   11.1566 C.2     1  UNL1        0.1473
     15 F          66.6293   92.1532    9.7373 F       1  UNL1       -0.2037
     16 C          65.6293   91.1719   11.9253 C.2     1  UNL1        0.0459
     17 C          65.1798   91.3552   13.3445 C.2     1  UNL1        0.0691
     18 C          66.8312   94.8488   11.0385 C.1     1  UNL1        0.0987
     19 N          67.3817   96.0132   10.2697 N.1     1  UNL1       -0.1911
     20 C          62.6313   81.0014   12.2990 C.3     1  UNL1        0.0458
     21 C          62.8578   82.4820   12.3797 C.3     1  UNL1        0.1581
     22 C          62.3669   82.4755   10.9624 C.3     1  UNL1        0.0458
     23 O          63.3014   82.1789   13.7802 O.3     1  UNL1       -0.4398
     24 C          63.6994   83.4708   14.4302 C.2     1  UNL1        0.4049
     25 O          64.2061   83.6328   15.8327 O.2     1  UNL1       -0.2262
     26 N          63.5019   84.5723   13.4314 N.am    1  UNL1       -0.2421
     27 C          62.9817   83.9612   12.1641 C.3     1  UNL1        0.1375
     28 C          62.6447   84.6997   10.9027 C.ar    1  UNL1       -0.0008
     29 C          63.4888   84.5143    9.6768 C.ar    1  UNL1       -0.0026
     30 C          63.1518   85.2528    8.4154 C.ar    1  UNL1       -0.0003
     31 C          61.9706   86.1766    8.3800 C.ar    1  UNL1       -0.0000
     32 C          61.1264   86.3620    9.6059 C.ar    1  UNL1       -0.0003
     33 C          61.4635   85.6235   10.8673 C.ar    1  UNL1       -0.0026
@<TRIPOS>BOND
     1    20    21    1
     2    21    22    1
     3    21    23    1
     4    23    24    1
     5    24    25    2
     6    24    26   am
     7     1    26    1
     8     1     2    1
     9     2     3    1
    10     3     4    1
    11     4     7    1
    12     7     8   am
    13     8     9    2
    14     8    10    1
    15    10    11    2
    16    11    12    1
    17    12    13    1
    18    13    18    1
    19    18    19    3
    20    13    14    2
    21    14    15    1
    22    14    16    1
    23    16    17    2
    24     4     5    1
    25     5     6    1
    26    26    27    1
    27    27    28    1
    28    28    29   ar
    29    29    30   ar
    30    30    31   ar
    31    31    32   ar
    32    32    33   ar
    33    27    21    1
    34    33    28   ar
    35     6     1    1
    36    17     7    1
    37    17    11    1
@<TRIPOS>MOLECULE
*****
 33 37 0 0 0
SMALL
GASTEIGER

@<TRIPOS>ATOM
      1 C          63.7599   85.3454   13.6685 C.3     1  UNL1        0.0790
      2 C          64.0104   85.5239   15.1366 C.3     1  UNL1        0.0216
      3 C          64.0722   86.9024   15.7248 C.3     1  UNL1        0.0219
      4 C          63.8834   88.1025   14.8448 C.3     1  UNL1        0.0815
      5 C          63.6329   87.9240   13.3768 C.3     1  UNL1        0.0219
      6 C          63.5711   86.5455   12.7885 C.3     1  UNL1        0.0216
      7 N          63.9452   89.4810   15.4330 N.am    1  UNL1       -0.2423
      8 C          62.8490   90.1640   16.1957 C.2     1  UNL1        0.3309
      9 O          61.4985   89.5886   16.5041 O.2     1  UNL1       -0.2501
     10 N          63.3404   91.5236   16.5958 N.am    1  UNL1       -0.1647
     11 C          64.7403   91.6808   16.0805 C.2     1  UNL1        0.0715
     12 C          65.7229   92.8103   16.1727 C.3     1  UNL1        0.0836
     13 C          67.0793   92.6774   15.5463 C.2     1  UNL1        0.0794
     14 C          67.4531   91.4149   14.8277 C.2     1  UNL1        0.1473
     15 F          68.8096   91.2821   14.2013 F       1  UNL1       -0.2037
     16 C          66.4705   90.2854   14.7354 C.2     1  UNL1        0.0459
     17 C          65.1141   90.4183   15.3618 C.2     1  UNL1        0.0691
     18 C          68.0620   93.8070   15.6386 C.1     1  UNL1        0.0987
     19 N          69.0447   94.9365   15.7308 N.1     1  UNL1       -0.1911
     20 C          63.3352   80.7009   11.0821 C.3     1  UNL1        0.0458
     21 C          63.3420   82.1315   11.5327 C.3     1  UNL1        0.1581
     22 C          62.8186   82.4040   10.1537 C.3     1  UNL1        0.0458
     23 O          63.8640   81.5599   12.8176 O.3     1  UNL1       -0.4398
     24 C          64.0841   82.6943   13.7740 C.2     1  UNL1        0.4049
     25 O          64.5996   82.5766   15.1777 O.2     1  UNL1       -0.2262
     26 N          63.6981   83.9670   13.0802 N.am    1  UNL1       -0.2421
     27 C          63.2395   83.6192   11.6951 C.3     1  UNL1        0.1375
     28 C          62.7621   84.5888   10.6549 C.ar    1  UNL1       -0.0008
     29 C          63.4856   84.7008    9.3458 C.ar    1  UNL1       -0.0026
     30 C          63.0082   85.6705    8.3056 C.ar    1  UNL1       -0.0003
     31 C          61.8073   86.5280    8.5745 C.ar    1  UNL1       -0.0000
     32 C          61.0838   86.4160    9.8837 C.ar    1  UNL1       -0.0003
     33 C          61.5612   85.4463   10.9239 C.ar    1  UNL1       -0.0026
@<TRIPOS>BOND
     1    20    21    1
     2    21    22    1
     3    21    23    1
     4    23    24    1
     5    24    25    2
     6    24    26   am
     7     1    26    1
     8     1     2    1
     9     2     3    1
    10     3     4    1
    11     4     7    1
    12     7     8   am
    13     8     9    2
    14     8    10    1
    15    10    11    2
    16    11    12    1
    17    12    13    1
    18    13    18    1
    19    18    19    3
    20    13    14    2
    21    14    15    1
    22    14    16    1
    23    16    17    2
    24     4     5    1
    25     5     6    1
    26    26    27    1
    27    27    28    1
    28    28    29   ar
    29    29    30   ar
    30    30    31   ar
    31    31    32   ar
    32    32    33   ar
    33    27    21    1
    34    33    28   ar
    35     6     1    1
    36    17     7    1
    37    17    11    1
