@<TRIPOS>MOLECULE
*****
 34 38 0 0 0
SMALL
GASTEIGER

@<TRIPOS>ATOM
      1 O          63.4101   87.3675   13.4163 O.2     1  UNL1       -0.2698
      2 C          62.9189   86.4290   12.3542 C.2     1  UNL1        0.2507
      3 N          61.9931   86.9261   11.2839 N.am    1  UNL1       -0.2723
      4 C          61.5019   85.9876   10.2218 C.3     1  UNL1        0.1257
      5 C          60.5760   86.4848    9.1514 C.3     1  UNL1        0.1637
      6 O          60.1414   87.9204    9.1432 O.3     1  UNL1       -0.3502
      7 C          60.6325   88.8589   10.2053 C.3     1  UNL1        0.1622
      8 C          61.5584   88.3618   11.2756 C.3     1  UNL1        0.1097
      9 C          63.3536   84.9933   12.3625 C.ar    1  UNL1        0.0738
     10 C          63.6657   84.2968   11.0712 C.ar    1  UNL1        0.0175
     11 C          64.1004   82.8612   11.0794 C.ar    1  UNL1        0.0579
     12 CL         64.4124   82.1646    9.7881 Cl      1  UNL1       -0.0822
     13 C          64.2230   82.1222   12.3790 C.ar    1  UNL1        0.0130
     14 C          63.9110   82.8188   13.6702 C.ar    1  UNL1        0.0219
     15 C          63.4763   84.2543   13.6620 C.ar    1  UNL1        0.1073
     16 N          63.1643   84.9509   14.9533 N.ar    1  UNL1       -0.1477
     17 N          64.1361   85.7224   15.7962 N.ar    1  UNL1       -0.1447
     18 C          63.3981   86.2466   16.9922 C.ar    1  UNL1        0.1446
     19 C          61.9702   85.7991   16.8886 C.ar    1  UNL1        0.1446
     20 N          61.8257   84.9984   15.6284 N.ar    1  UNL1       -0.1447
     21 C          62.0495   89.3002   12.3377 C.3     1  UNL1        0.0510
     22 C          63.1170   90.3038   12.0165 C.ar    1  UNL1        0.0071
     23 C          64.1222   90.6898   13.0608 C.ar    1  UNL1        0.0011
     24 C          65.1897   91.6935   12.7396 C.ar    1  UNL1        0.0356
     25 C          65.2521   92.3111   11.3741 C.ar    1  UNL1        0.0053
     26 C          64.2469   91.9250   10.3297 C.ar    1  UNL1        0.0294
     27 C          63.1794   90.9214   10.6509 C.ar    1  UNL1        0.1362
     28 F          62.1743   90.5354    9.6066 F       1  UNL1       -0.2045
     29 C          66.1949   92.0795   13.7840 C.ar    1  UNL1        0.1622
     30 N          65.7402   92.4251   15.1710 N.ar    1  UNL1       -0.2250
     31 C          66.7454   92.8111   16.2153 C.ar    1  UNL1        0.1022
     32 C          68.2052   92.8515   15.8726 C.ar    1  UNL1        0.0414
     33 C          68.6598   92.5059   14.4856 C.ar    1  UNL1        0.1022
     34 N          67.6546   92.1198   13.4413 N.ar    1  UNL1       -0.2250
@<TRIPOS>BOND
     1     1     2    2
     2     2     9    1
     3     9    10   ar
     4    10    11   ar
     5    11    12    1
     6    11    13   ar
     7    13    14   ar
     8    14    15   ar
     9    15    16    1
    10    16    17   ar
    11    17    18   ar
    12    18    19   ar
    13    19    20   ar
    14     2     3   am
    15     3     4    1
    16     4     5    1
    17     5     6    1
    18     6     7    1
    19     7     8    1
    20     8    21    1
    21    21    22    1
    22    22    23   ar
    23    23    24   ar
    24    24    29    1
    25    29    30   ar
    26    30    31   ar
    27    31    32   ar
    28    32    33   ar
    29    33    34   ar
    30    24    25   ar
    31    25    26   ar
    32    26    27   ar
    33    27    28    1
    34    15     9   ar
    35    20    16   ar
    36     8     3    1
    37    27    22   ar
    38    34    29   ar
@<TRIPOS>MOLECULE
*****
 34 38 0 0 0
SMALL
GASTEIGER

@<TRIPOS>ATOM
      1 O          63.4343   87.3957   13.1789 O.2     1  UNL1       -0.2698
      2 C          62.7799   87.2724   11.8348 C.2     1  UNL1        0.2507
      3 N          61.9881   88.4182   11.2782 N.am    1  UNL1       -0.2723
      4 C          61.3337   88.2949    9.9341 C.3     1  UNL1        0.1257
      5 C          60.5418   89.4409    9.3775 C.3     1  UNL1        0.1637
      6 O          60.4043   90.7101   10.1649 O.3     1  UNL1       -0.3502
      7 C          61.0587   90.8334   11.5090 C.3     1  UNL1        0.1622
      8 C          61.8506   89.6876   12.0656 C.3     1  UNL1        0.1097
      9 C          62.9174   86.0030   11.0474 C.ar    1  UNL1        0.0738
     10 C          62.8092   86.0330    9.5516 C.ar    1  UNL1        0.0175
     11 C          62.9467   84.7637    8.7641 C.ar    1  UNL1        0.0579
     12 CL         62.8385   84.7937    7.2683 Cl      1  UNL1       -0.0822
     13 C          63.1924   83.4646    9.4725 C.ar    1  UNL1        0.0130
     14 C          63.3006   83.4347   10.9683 C.ar    1  UNL1        0.0219
     15 C          63.1631   84.7039   11.7557 C.ar    1  UNL1        0.1073
     16 N          63.2713   84.6740   13.2515 N.ar    1  UNL1       -0.1477
     17 N          62.1246   84.6562   14.2183 N.ar    1  UNL1       -0.1447
     18 C          62.6898   84.6278   15.6075 C.ar    1  UNL1        0.1446
     19 C          64.1858   84.6280   15.4992 C.ar    1  UNL1        0.1446
     20 N          64.5452   84.6566   14.0432 N.ar    1  UNL1       -0.1447
     21 C          62.5049   89.8109   13.4097 C.3     1  UNL1        0.0510
     22 C          63.7226   90.6711   13.5750 C.ar    1  UNL1        0.0071
     23 C          64.3176   91.3650   12.3857 C.ar    1  UNL1        0.0011
     24 C          65.5353   92.2253   12.5509 C.ar    1  UNL1        0.0356
     25 C          66.1579   92.3916   13.9054 C.ar    1  UNL1        0.0053
     26 C          65.5628   91.6977   15.0947 C.ar    1  UNL1        0.0294
     27 C          64.3452   90.8374   14.9295 C.ar    1  UNL1        0.1362
     28 F          63.7502   90.1435   16.1187 F       1  UNL1       -0.2045
     29 C          66.1303   92.9192   11.3616 C.ar    1  UNL1        0.1622
     30 N          65.6104   94.2611   10.9385 N.ar    1  UNL1       -0.2250
     31 C          66.2054   94.9551    9.7493 C.ar    1  UNL1        0.1022
     32 C          67.3203   94.3071    8.9830 C.ar    1  UNL1        0.0414
     33 C          67.8403   92.9652    9.4061 C.ar    1  UNL1        0.1022
     34 N          67.2452   92.2713   10.5955 N.ar    1  UNL1       -0.2250
@<TRIPOS>BOND
     1     1     2    2
     2     2     9    1
     3     9    10   ar
     4    10    11   ar
     5    11    12    1
     6    11    13   ar
     7    13    14   ar
     8    14    15   ar
     9    15    16    1
    10    16    17   ar
    11    17    18   ar
    12    18    19   ar
    13    19    20   ar
    14     2     3   am
    15     3     4    1
    16     4     5    1
    17     5     6    1
    18     6     7    1
    19     7     8    1
    20     8    21    1
    21    21    22    1
    22    22    23   ar
    23    23    24   ar
    24    24    29    1
    25    29    30   ar
    26    30    31   ar
    27    31    32   ar
    28    32    33   ar
    29    33    34   ar
    30    24    25   ar
    31    25    26   ar
    32    26    27   ar
    33    27    28    1
    34    15     9   ar
    35    20    16   ar
    36     8     3    1
    37    27    22   ar
    38    34    29   ar
@<TRIPOS>MOLECULE
*****
 34 38 0 0 0
SMALL
GASTEIGER

@<TRIPOS>ATOM
      1 O          63.6362   87.6390   14.1602 O.2     1  UNL1       -0.2698
      2 C          63.2107   86.9830   12.8802 C.2     1  UNL1        0.2507
      3 N          62.6409   87.8106   11.7665 N.am    1  UNL1       -0.2723
      4 C          62.2153   87.1545   10.4865 C.3     1  UNL1        0.1257
      5 C          61.6455   87.9823    9.3728 C.3     1  UNL1        0.1637
      6 O          61.5012   89.4660    9.5392 O.3     1  UNL1       -0.3502
      7 C          61.9268   90.1221   10.8192 C.3     1  UNL1        0.1622
      8 C          62.4966   89.2944   11.9329 C.3     1  UNL1        0.1097
      9 C          63.3549   85.4992   12.7139 C.ar    1  UNL1        0.0738
     10 C          63.5884   84.9164   11.3516 C.ar    1  UNL1        0.0175
     11 C          63.7326   83.4327   11.1852 C.ar    1  UNL1        0.0579
     12 CL         63.9660   82.8499    9.8229 Cl      1  UNL1       -0.0822
     13 C          63.6434   82.5317   12.3811 C.ar    1  UNL1        0.0130
     14 C          63.4100   83.1145   13.7434 C.ar    1  UNL1        0.0219
     15 C          63.2658   84.5982   13.9098 C.ar    1  UNL1        0.1073
     16 N          63.0323   85.1810   15.2721 N.ar    1  UNL1       -0.1477
     17 N          64.0860   85.7246   16.1909 N.ar    1  UNL1       -0.1447
     18 C          63.4091   86.2021   17.4415 C.ar    1  UNL1        0.1446
     19 C          61.9371   85.9536   17.2955 C.ar    1  UNL1        0.1446
     20 N          61.7042   85.3226   15.9548 N.ar    1  UNL1       -0.1447
     21 C          62.9222   89.9505   13.2129 C.3     1  UNL1        0.0510
     22 C          64.2232   90.6941   13.2781 C.ar    1  UNL1        0.0071
     23 C          64.6957   91.4840   12.0937 C.ar    1  UNL1        0.0011
     24 C          65.9968   92.2277   12.1588 C.ar    1  UNL1        0.0356
     25 C          66.8253   92.1814   13.4084 C.ar    1  UNL1        0.0053
     26 C          66.3528   91.3915   14.5928 C.ar    1  UNL1        0.0294
     27 C          65.0518   90.6478   14.5276 C.ar    1  UNL1        0.1362
     28 F          64.5793   89.8579   15.7120 F       1  UNL1       -0.2045
     29 C          66.4693   93.0176   10.9745 C.ar    1  UNL1        0.1622
     30 N          67.5482   92.4685   10.0888 N.ar    1  UNL1       -0.2250
     31 C          68.0207   93.2584    8.9044 C.ar    1  UNL1        0.1022
     32 C          67.4143   94.5975    8.6057 C.ar    1  UNL1        0.0414
     33 C          66.3354   95.1466    9.4914 C.ar    1  UNL1        0.1022
     34 N          65.8629   94.3566   10.6758 N.ar    1  UNL1       -0.2250
@<TRIPOS>BOND
     1     1     2    2
     2     2     9    1
     3     9    10   ar
     4    10    11   ar
     5    11    12    1
     6    11    13   ar
     7    13    14   ar
     8    14    15   ar
     9    15    16    1
    10    16    17   ar
    11    17    18   ar
    12    18    19   ar
    13    19    20   ar
    14     2     3   am
    15     3     4    1
    16     4     5    1
    17     5     6    1
    18     6     7    1
    19     7     8    1
    20     8    21    1
    21    21    22    1
    22    22    23   ar
    23    23    24   ar
    24    24    29    1
    25    29    30   ar
    26    30    31   ar
    27    31    32   ar
    28    32    33   ar
    29    33    34   ar
    30    24    25   ar
    31    25    26   ar
    32    26    27   ar
    33    27    28    1
    34    15     9   ar
    35    20    16   ar
    36     8     3    1
    37    27    22   ar
    38    34    29   ar
@<TRIPOS>MOLECULE
*****
 34 38 0 0 0
SMALL
GASTEIGER

@<TRIPOS>ATOM
      1 O          63.6069   87.8231   12.6736 O.2     1  UNL1       -0.2698
      2 C          62.6488   87.3249   11.6325 C.2     1  UNL1        0.2507
      3 N          61.4872   88.1763   11.2135 N.am    1  UNL1       -0.2723
      4 C          60.5292   87.6781   10.1724 C.3     1  UNL1        0.1257
      5 C          59.3675   88.5296    9.7533 C.3     1  UNL1        0.1637
      6 O          59.1639   89.8792   10.3754 O.3     1  UNL1       -0.3502
      7 C          60.1219   90.3774   11.4165 C.3     1  UNL1        0.1622
      8 C          61.2836   89.5260   11.8355 C.3     1  UNL1        0.1097
      9 C          62.8525   85.9752   11.0105 C.ar    1  UNL1        0.0738
     10 C          62.7930   85.8198    9.5197 C.ar    1  UNL1        0.0175
     11 C          62.9967   84.4702    8.8976 C.ar    1  UNL1        0.0579
     12 CL         62.9372   84.3147    7.4069 Cl      1  UNL1       -0.0822
     13 C          63.2597   83.2760    9.7663 C.ar    1  UNL1        0.0130
     14 C          63.3192   83.4314   11.2571 C.ar    1  UNL1        0.0219
     15 C          63.1155   84.7810   11.8791 C.ar    1  UNL1        0.1073
     16 N          63.1750   84.9364   13.3699 N.ar    1  UNL1       -0.1477
     17 N          62.0276   84.7649   14.3207 N.ar    1  UNL1       -0.1447
     18 C          62.5357   85.0131   15.7100 C.ar    1  UNL1        0.1446
     19 C          63.9972   85.3380   15.6179 C.ar    1  UNL1        0.1446
     20 N          64.3923   85.2906   14.1716 N.ar    1  UNL1       -0.1447
     21 C          62.2416   90.0242   12.8766 C.3     1  UNL1        0.0510
     22 C          63.4290   90.8462   12.4712 C.ar    1  UNL1        0.0071
     23 C          64.5034   91.1559   13.4711 C.ar    1  UNL1        0.0011
     24 C          65.6909   91.9779   13.0656 C.ar    1  UNL1        0.0356
     25 C          65.8039   92.4901   11.6604 C.ar    1  UNL1        0.0053
     26 C          64.7294   92.1804   10.6605 C.ar    1  UNL1        0.0294
     27 C          63.5420   91.3585   11.0659 C.ar    1  UNL1        0.1362
     28 F          62.4676   91.0488   10.0661 F       1  UNL1       -0.2045
     29 C          66.7653   92.2876   14.0655 C.ar    1  UNL1        0.1622
     30 N          68.2089   92.1816   13.6722 N.ar    1  UNL1       -0.2250
     31 C          69.2833   92.4913   14.6721 C.ar    1  UNL1        0.1022
     32 C          68.9140   92.9070   16.0653 C.ar    1  UNL1        0.0414
     33 C          67.4704   93.0129   16.4586 C.ar    1  UNL1        0.1022
     34 N          66.3960   92.7032   15.4586 N.ar    1  UNL1       -0.2250
@<TRIPOS>BOND
     1     1     2    2
     2     2     9    1
     3     9    10   ar
     4    10    11   ar
     5    11    12    1
     6    11    13   ar
     7    13    14   ar
     8    14    15   ar
     9    15    16    1
    10    16    17   ar
    11    17    18   ar
    12    18    19   ar
    13    19    20   ar
    14     2     3   am
    15     3     4    1
    16     4     5    1
    17     5     6    1
    18     6     7    1
    19     7     8    1
    20     8    21    1
    21    21    22    1
    22    22    23   ar
    23    23    24   ar
    24    24    29    1
    25    29    30   ar
    26    30    31   ar
    27    31    32   ar
    28    32    33   ar
    29    33    34   ar
    30    24    25   ar
    31    25    26   ar
    32    26    27   ar
    33    27    28    1
    34    15     9   ar
    35    20    16   ar
    36     8     3    1
    37    27    22   ar
    38    34    29   ar
@<TRIPOS>MOLECULE
*****
 34 38 0 0 0
SMALL
GASTEIGER

@<TRIPOS>ATOM
      1 O          61.7932   85.6334   13.1478 O.2     1  UNL1       -0.2698
      2 C          62.3798   84.5979   12.2348 C.2     1  UNL1        0.2507
      3 N          62.6324   84.9258   10.7930 N.am    1  UNL1       -0.2723
      4 C          63.2190   83.8903    9.8800 C.3     1  UNL1        0.1257
      5 C          63.4716   84.2183    8.4382 C.3     1  UNL1        0.1637
      6 O          63.1375   85.5816    7.9095 O.3     1  UNL1       -0.3502
      7 C          62.5508   86.6171    8.8225 C.3     1  UNL1        0.1622
      8 C          62.2983   86.2892   10.2642 C.3     1  UNL1        0.1097
      9 C          62.7140   83.2345   12.7636 C.ar    1  UNL1        0.0738
     10 C          62.5423   82.0281   11.8889 C.ar    1  UNL1        0.0175
     11 C          62.8763   80.6647   12.4176 C.ar    1  UNL1        0.0579
     12 CL         62.7046   79.4583   11.5430 Cl      1  UNL1       -0.0822
     13 C          63.3821   80.5078   13.8210 C.ar    1  UNL1        0.0130
     14 C          63.5538   81.7143   14.6957 C.ar    1  UNL1        0.0219
     15 C          63.2198   83.0776   14.1669 C.ar    1  UNL1        0.1073
     16 N          63.3915   84.2841   15.0416 N.ar    1  UNL1       -0.1477
     17 N          62.4897   84.6913   16.1690 N.ar    1  UNL1       -0.1447
     18 C          63.0360   85.9540   16.7666 C.ar    1  UNL1        0.1446
     19 C          64.2754   86.3272   16.0085 C.ar    1  UNL1        0.1446
     20 N          64.4951   85.2951   14.9424 N.ar    1  UNL1       -0.1447
     21 C          61.7116   87.3247   11.1772 C.3     1  UNL1        0.0510
     22 C          62.2458   88.7263   11.1631 C.ar    1  UNL1        0.0071
     23 C          63.0525   89.2331   12.3216 C.ar    1  UNL1        0.0011
     24 C          63.5867   90.6348   12.3075 C.ar    1  UNL1        0.0356
     25 C          63.3141   91.5295   11.1348 C.ar    1  UNL1        0.0053
     26 C          62.5073   91.0226    9.9762 C.ar    1  UNL1        0.0294
     27 C          61.9732   89.6210    9.9904 C.ar    1  UNL1        0.1362
     28 F          61.1664   89.1141    8.8319 F       1  UNL1       -0.2045
     29 C          64.3935   91.1416   13.4660 C.ar    1  UNL1        0.1622
     30 N          65.8141   91.5758   13.2578 N.ar    1  UNL1       -0.2250
     31 C          66.6209   92.0826   14.4163 C.ar    1  UNL1        0.1022
     32 C          66.0070   92.1553   15.7831 C.ar    1  UNL1        0.0414
     33 C          64.5864   91.7212   15.9913 C.ar    1  UNL1        0.1022
     34 N          63.7796   91.2143   14.8326 N.ar    1  UNL1       -0.2250
@<TRIPOS>BOND
     1     1     2    2
     2     2     9    1
     3     9    10   ar
     4    10    11   ar
     5    11    12    1
     6    11    13   ar
     7    13    14   ar
     8    14    15   ar
     9    15    16    1
    10    16    17   ar
    11    17    18   ar
    12    18    19   ar
    13    19    20   ar
    14     2     3   am
    15     3     4    1
    16     4     5    1
    17     5     6    1
    18     6     7    1
    19     7     8    1
    20     8    21    1
    21    21    22    1
    22    22    23   ar
    23    23    24   ar
    24    24    29    1
    25    29    30   ar
    26    30    31   ar
    27    31    32   ar
    28    32    33   ar
    29    33    34   ar
    30    24    25   ar
    31    25    26   ar
    32    26    27   ar
    33    27    28    1
    34    15     9   ar
    35    20    16   ar
    36     8     3    1
    37    27    22   ar
    38    34    29   ar
@<TRIPOS>MOLECULE
*****
 34 38 0 0 0
SMALL
GASTEIGER

@<TRIPOS>ATOM
      1 O          62.4467   90.1758   11.6165 O.2     1  UNL1       -0.2698
      2 C          62.5867   88.6825   11.6346 C.2     1  UNL1        0.2507
      3 N          63.3084   88.0106   12.7649 N.am    1  UNL1       -0.2723
      4 C          63.4485   86.5172   12.7831 C.3     1  UNL1        0.1257
      5 C          64.1703   85.8453   13.9135 C.3     1  UNL1        0.1637
      6 O          64.7519   86.6668   15.0257 O.3     1  UNL1       -0.3502
      7 C          64.6118   88.1601   15.0075 C.3     1  UNL1        0.1622
      8 C          63.8901   88.8320   13.8772 C.3     1  UNL1        0.1097
      9 C          62.0051   87.8610   10.5224 C.ar    1  UNL1        0.0738
     10 C          62.8676   86.8810    9.7836 C.ar    1  UNL1        0.0175
     11 C          62.2860   86.0596    8.6714 C.ar    1  UNL1        0.0579
     12 CL         63.1484   85.0797    7.9327 Cl      1  UNL1       -0.0822
     13 C          60.8419   86.2182    8.2980 C.ar    1  UNL1        0.0130
     14 C          59.9794   87.1982    9.0368 C.ar    1  UNL1        0.0219
     15 C          60.5610   88.0196   10.1490 C.ar    1  UNL1        0.1073
     16 N          59.6985   88.9995   10.8878 N.ar    1  UNL1       -0.1477
     17 N          59.4982   90.4424   10.5302 N.ar    1  UNL1       -0.1447
     18 C          58.5608   91.0433   11.5352 C.ar    1  UNL1        0.1446
     19 C          58.1817   89.9718   12.5141 C.ar    1  UNL1        0.1446
     20 N          58.8849   88.7087   12.1139 N.ar    1  UNL1       -0.1447
     21 C          63.7500   90.3253   13.8590 C.3     1  UNL1        0.0510
     22 C          64.9723   91.1926   13.7962 C.ar    1  UNL1        0.0071
     23 C          65.5203   91.6210   12.4673 C.ar    1  UNL1        0.0011
     24 C          66.7426   92.4883   12.4044 C.ar    1  UNL1        0.0356
     25 C          67.4168   92.9271   13.6704 C.ar    1  UNL1        0.0053
     26 C          66.8687   92.4986   14.9994 C.ar    1  UNL1        0.0294
     27 C          65.6464   91.6314   15.0622 C.ar    1  UNL1        0.1362
     28 F          65.0984   91.2030   16.3911 F       1  UNL1       -0.2045
     29 C          67.2907   92.9167   11.0755 C.ar    1  UNL1        0.1622
     30 N          67.0710   94.3190   10.5904 N.ar    1  UNL1       -0.2250
     31 C          67.6191   94.7474    9.2615 C.ar    1  UNL1        0.1022
     32 C          68.3869   93.7735    8.4176 C.ar    1  UNL1        0.0414
     33 C          68.6065   92.3712    8.9026 C.ar    1  UNL1        0.1022
     34 N          68.0584   91.9428   10.2316 N.ar    1  UNL1       -0.2250
@<TRIPOS>BOND
     1     1     2    2
     2     2     9    1
     3     9    10   ar
     4    10    11   ar
     5    11    12    1
     6    11    13   ar
     7    13    14   ar
     8    14    15   ar
     9    15    16    1
    10    16    17   ar
    11    17    18   ar
    12    18    19   ar
    13    19    20   ar
    14     2     3   am
    15     3     4    1
    16     4     5    1
    17     5     6    1
    18     6     7    1
    19     7     8    1
    20     8    21    1
    21    21    22    1
    22    22    23   ar
    23    23    24   ar
    24    24    29    1
    25    29    30   ar
    26    30    31   ar
    27    31    32   ar
    28    32    33   ar
    29    33    34   ar
    30    24    25   ar
    31    25    26   ar
    32    26    27   ar
    33    27    28    1
    34    15     9   ar
    35    20    16   ar
    36     8     3    1
    37    27    22   ar
    38    34    29   ar
@<TRIPOS>MOLECULE
*****
 34 38 0 0 0
SMALL
GASTEIGER

@<TRIPOS>ATOM
      1 O          63.6774   88.8771   11.9194 O.2     1  UNL1       -0.2698
      2 C          63.5073   88.0718   13.1734 C.2     1  UNL1        0.2507
      3 N          63.4345   88.7613   14.5034 N.am    1  UNL1       -0.2723
      4 C          63.2644   87.9560   15.7575 C.3     1  UNL1        0.1257
      5 C          63.1916   88.6457   17.0876 C.3     1  UNL1        0.1637
      6 O          63.2890   90.1406   17.1636 O.3     1  UNL1       -0.3502
      7 C          63.4592   90.9459   15.9096 C.3     1  UNL1        0.1622
      8 C          63.5319   90.2563   14.5796 C.3     1  UNL1        0.1097
      9 C          63.4099   86.5768   13.0972 C.ar    1  UNL1        0.0738
     10 C          64.1781   85.7250   14.0638 C.ar    1  UNL1        0.0175
     11 C          64.0807   84.2302   13.9878 C.ar    1  UNL1        0.0579
     12 CL         64.8489   83.3784   14.9543 Cl      1  UNL1       -0.0822
     13 C          63.2152   83.5871   12.9451 C.ar    1  UNL1        0.0130
     14 C          62.4469   84.4389   11.9785 C.ar    1  UNL1        0.0219
     15 C          62.5443   85.9338   12.0546 C.ar    1  UNL1        0.1073
     16 N          61.7761   86.7855   11.0880 N.ar    1  UNL1       -0.1477
     17 N          62.0882   86.9677    9.6322 N.ar    1  UNL1       -0.1447
     18 C          61.0659   87.8995    9.0519 C.ar    1  UNL1        0.1446
     19 C          60.1219   88.2932   10.1492 C.ar    1  UNL1        0.1446
     20 N          60.5609   87.6048   11.4075 N.ar    1  UNL1       -0.1447
     21 C          63.7021   91.0616   13.3255 C.3     1  UNL1        0.0510
     22 C          65.0184   91.7159   13.0272 C.ar    1  UNL1        0.0071
     23 C          65.1120   92.7557   11.9502 C.ar    1  UNL1        0.0011
     24 C          66.4284   93.4101   11.6518 C.ar    1  UNL1        0.0356
     25 C          67.6512   93.0246   12.4305 C.ar    1  UNL1        0.0053
     26 C          67.5575   91.9847   13.5075 C.ar    1  UNL1        0.0294
     27 C          66.2411   91.3304   13.8059 C.ar    1  UNL1        0.1362
     28 F          66.1475   90.2906   14.8829 F       1  UNL1       -0.2045
     29 C          66.5221   94.4499   10.5748 C.ar    1  UNL1        0.1622
     30 N          65.5082   95.5533   10.5074 N.ar    1  UNL1       -0.2250
     31 C          65.6018   96.5931    9.4305 C.ar    1  UNL1        0.1022
     32 C          66.7094   96.5296    8.4208 C.ar    1  UNL1        0.0414
     33 C          67.7232   95.4261    8.4881 C.ar    1  UNL1        0.1022
     34 N          67.6296   94.3863    9.5652 N.ar    1  UNL1       -0.2250
@<TRIPOS>BOND
     1     1     2    2
     2     2     9    1
     3     9    10   ar
     4    10    11   ar
     5    11    12    1
     6    11    13   ar
     7    13    14   ar
     8    14    15   ar
     9    15    16    1
    10    16    17   ar
    11    17    18   ar
    12    18    19   ar
    13    19    20   ar
    14     2     3   am
    15     3     4    1
    16     4     5    1
    17     5     6    1
    18     6     7    1
    19     7     8    1
    20     8    21    1
    21    21    22    1
    22    22    23   ar
    23    23    24   ar
    24    24    29    1
    25    29    30   ar
    26    30    31   ar
    27    31    32   ar
    28    32    33   ar
    29    33    34   ar
    30    24    25   ar
    31    25    26   ar
    32    26    27   ar
    33    27    28    1
    34    15     9   ar
    35    20    16   ar
    36     8     3    1
    37    27    22   ar
    38    34    29   ar
@<TRIPOS>MOLECULE
*****
 34 38 0 0 0
SMALL
GASTEIGER

@<TRIPOS>ATOM
      1 O          63.4258   88.8464    9.8249 O.2     1  UNL1       -0.2698
      2 C          61.9656   88.7052   10.1377 C.2     1  UNL1        0.2507
      3 N          61.4513   89.0701   11.4987 N.am    1  UNL1       -0.2723
      4 C          59.9911   88.9290   11.8114 C.3     1  UNL1        0.1257
      5 C          59.4769   89.2939   13.1725 C.3     1  UNL1        0.1637
      6 O          60.4229   89.8000   14.2208 O.3     1  UNL1       -0.3502
      7 C          61.8832   89.9412   13.9080 C.3     1  UNL1        0.1622
      8 C          62.3974   89.5763   12.5470 C.3     1  UNL1        0.1097
      9 C          61.0195   88.1991    9.0893 C.ar    1  UNL1        0.0738
     10 C          60.1787   89.1652    8.3086 C.ar    1  UNL1        0.0175
     11 C          59.2327   88.6592    7.2603 C.ar    1  UNL1        0.0579
     12 CL         58.3918   89.6253    6.4795 Cl      1  UNL1       -0.0822
     13 C          59.1276   87.1870    6.9927 C.ar    1  UNL1        0.0130
     14 C          59.9684   86.2209    7.7735 C.ar    1  UNL1        0.0219
     15 C          60.9144   86.7270    8.8218 C.ar    1  UNL1        0.1073
     16 N          61.7553   85.7608    9.6025 N.ar    1  UNL1       -0.1477
     17 N          62.9189   84.9765    9.0727 N.ar    1  UNL1       -0.1447
     18 C          63.4630   84.1404   10.1929 C.ar    1  UNL1        0.1446
     19 C          62.6355   84.4078   11.4151 C.ar    1  UNL1        0.1446
     20 N          61.5801   85.4093   11.0502 N.ar    1  UNL1       -0.1447
     21 C          63.8576   89.7174   12.2343 C.3     1  UNL1        0.0510
     22 C          64.6290   90.8882   12.7674 C.ar    1  UNL1        0.0071
     23 C          65.0123   92.0131   11.8523 C.ar    1  UNL1        0.0011
     24 C          65.7838   93.1839   12.3854 C.ar    1  UNL1        0.0356
     25 C          66.1719   93.2297   13.8336 C.ar    1  UNL1        0.0053
     26 C          65.7886   92.1046   14.7487 C.ar    1  UNL1        0.0294
     27 C          65.0171   90.9339   14.2156 C.ar    1  UNL1        0.1362
     28 F          64.6338   89.8089   15.1307 F       1  UNL1       -0.2045
     29 C          66.1671   94.3089   11.4703 C.ar    1  UNL1        0.1622
     30 N          66.0790   95.7279   11.9485 N.ar    1  UNL1       -0.2250
     31 C          66.4623   96.8529   11.0334 C.ar    1  UNL1        0.1022
     32 C          66.9338   96.5589    9.6400 C.ar    1  UNL1        0.0414
     33 C          67.0219   95.1399    9.1619 C.ar    1  UNL1        0.1022
     34 N          66.6385   94.0149   10.0770 N.ar    1  UNL1       -0.2250
@<TRIPOS>BOND
     1     1     2    2
     2     2     9    1
     3     9    10   ar
     4    10    11   ar
     5    11    12    1
     6    11    13   ar
     7    13    14   ar
     8    14    15   ar
     9    15    16    1
    10    16    17   ar
    11    17    18   ar
    12    18    19   ar
    13    19    20   ar
    14     2     3   am
    15     3     4    1
    16     4     5    1
    17     5     6    1
    18     6     7    1
    19     7     8    1
    20     8    21    1
    21    21    22    1
    22    22    23   ar
    23    23    24   ar
    24    24    29    1
    25    29    30   ar
    26    30    31   ar
    27    31    32   ar
    28    32    33   ar
    29    33    34   ar
    30    24    25   ar
    31    25    26   ar
    32    26    27   ar
    33    27    28    1
    34    15     9   ar
    35    20    16   ar
    36     8     3    1
    37    27    22   ar
    38    34    29   ar
