@<TRIPOS>MOLECULE
*****
 32 35 0 0 0
SMALL
GASTEIGER

@<TRIPOS>ATOM
      1 C          63.4189   87.9412   12.8461 C.2     1  UNL1        0.3337
      2 N          64.1643   87.6307   14.1102 N.2     1  UNL1        0.0756
      3 N          64.1755   86.1413   14.2878 N.2     1  UNL1       -0.0381
      4 C          63.4370   85.5313   13.1334 C.2     1  UNL1        0.1207
      5 C          62.9693   86.6437   12.2424 C.3     1  UNL1        0.1739
      6 C          63.2065   84.0661   12.9094 C.ar    1  UNL1        0.0184
      7 C          62.3284   83.2929   13.8480 C.ar    1  UNL1        0.0044
      8 C          62.0979   81.8277   13.6239 C.ar    1  UNL1        0.0367
      9 C          62.7456   81.1358   12.4613 C.ar    1  UNL1        0.1337
     10 O          62.5152   79.6707   12.2371 O.3     1  UNL1       -0.5055
     11 C          63.6237   81.9091   11.5227 C.ar    1  UNL1        0.0367
     12 C          63.8542   83.3743   11.7467 C.ar    1  UNL1        0.0044
     13 H          61.9667   79.1876   12.8234 H       1  UNL1        0.2922
     14 C          62.1892   86.4863   10.9710 C.ar    1  UNL1       -0.0050
     15 C          60.7970   87.0361   10.8723 C.ar    1  UNL1       -0.0002
     16 C          60.0168   86.8786    9.6009 C.ar    1  UNL1        0.0363
     17 C          60.6288   86.1714    8.4281 C.ar    1  UNL1        0.1337
     18 O          59.8486   86.0140    7.1567 O.3     1  UNL1       -0.5055
     19 C          62.0209   85.6216    8.5267 C.ar    1  UNL1        0.0363
     20 C          62.8010   85.7791    9.7982 C.ar    1  UNL1       -0.0002
     21 H          58.9790   86.3574    7.0950 H       1  UNL1        0.2922
     22 N          63.1671   89.3091   12.2844 N.pl3   1  UNL1       -0.2161
     23 H          62.7754   89.4081   11.3866 H       1  UNL1        0.2923
     24 C          63.5121   90.5261   13.0905 C.3     1  UNL1        0.2264
     25 O          67.2552   94.6460   10.8509 O.3     1  UNL1       -0.5055
     26 C          66.3195   93.6160   11.4108 C.ar    1  UNL1        0.1337
     27 C          66.3460   93.2962   12.8760 C.ar    1  UNL1        0.0364
     28 C          65.4102   92.2662   13.4359 C.ar    1  UNL1        0.0028
     29 C          64.4479   91.5561   12.5306 C.ar    1  UNL1        0.0243
     30 C          64.4214   91.8759   11.0653 C.ar    1  UNL1        0.0028
     31 C          65.3572   92.9059   10.5054 C.ar    1  UNL1        0.0364
     32 H          67.8564   95.0896   11.4164 H       1  UNL1        0.2922
@<TRIPOS>BOND
     1    25    26    1
     2    26    27   ar
     3    27    28   ar
     4    28    29   ar
     5    29    24    1
     6    24    22    1
     7    22     1    1
     8     1     2    2
     9     2     3    1
    10     3     4    2
    11     4     6    1
    12     6     7   ar
    13     7     8   ar
    14     8     9   ar
    15     9    10    1
    16     9    11   ar
    17    11    12   ar
    18     4     5    1
    19     5    14    1
    20    14    15   ar
    21    15    16   ar
    22    16    17   ar
    23    17    18    1
    24    17    19   ar
    25    19    20   ar
    26    29    30   ar
    27    30    31   ar
    28    31    26   ar
    29     5     1    1
    30    20    14   ar
    31    12     6   ar
    32    25    32    1
    33    22    23    1
    34    10    13    1
    35    18    21    1
@<TRIPOS>MOLECULE
*****
 32 35 0 0 0
SMALL
GASTEIGER

@<TRIPOS>ATOM
      1 C          63.4185   87.9395   12.8525 C.2     1  UNL1        0.3337
      2 N          64.1602   87.6307   14.1192 N.2     1  UNL1        0.0756
      3 N          64.1707   86.1415   14.2989 N.2     1  UNL1       -0.0381
      4 C          63.4354   85.5300   13.1434 C.2     1  UNL1        0.1207
      5 C          62.9705   86.6412   12.2493 C.3     1  UNL1        0.1739
      6 C          63.2054   84.0645   12.9208 C.ar    1  UNL1        0.0184
      7 C          63.8604   83.3697   11.7639 C.ar    1  UNL1        0.0044
      8 C          63.6303   81.9043   11.5413 C.ar    1  UNL1        0.0367
      9 C          62.7453   81.1337   12.4756 C.ar    1  UNL1        0.1337
     10 O          62.5152   79.6682   12.2531 O.3     1  UNL1       -0.5055
     11 C          62.0903   81.8285   13.6324 C.ar    1  UNL1        0.0367
     12 C          62.3204   83.2939   13.8550 C.ar    1  UNL1        0.0044
     13 H          62.9243   79.2341   11.5305 H       1  UNL1        0.2922
     14 C          62.1941   86.4820   10.9760 C.ar    1  UNL1       -0.0050
     15 C          62.8097   85.7739    9.8056 C.ar    1  UNL1       -0.0002
     16 C          62.0332   85.6148    8.5321 C.ar    1  UNL1        0.0363
     17 C          60.6410   86.1637    8.4290 C.ar    1  UNL1        0.1337
     18 O          59.8645   86.0045    7.1555 O.3     1  UNL1       -0.5055
     19 C          60.0254   86.8717    9.5993 C.ar    1  UNL1        0.0363
     20 C          60.8019   87.0308   10.8727 C.ar    1  UNL1       -0.0002
     21 H          60.2491   85.5622    6.4245 H       1  UNL1        0.2922
     22 N          63.1686   89.3066   12.2880 N.pl3   1  UNL1       -0.2161
     23 H          62.7812   89.4044   11.3882 H       1  UNL1        0.2923
     24 C          63.5090   90.5247   13.0944 C.3     1  UNL1        0.2264
     25 O          67.2464   94.6532   10.8612 O.3     1  UNL1       -0.5055
     26 C          66.3121   93.6210   11.4195 C.ar    1  UNL1        0.1337
     27 C          65.3532   92.9084   10.5124 C.ar    1  UNL1        0.0364
     28 C          64.4189   91.8763   11.0708 C.ar    1  UNL1        0.0028
     29 C          64.4433   91.5568   12.5361 C.ar    1  UNL1        0.0243
     30 C          65.4022   92.2695   13.4431 C.ar    1  UNL1        0.0028
     31 C          66.3365   93.3016   12.8848 C.ar    1  UNL1        0.0364
     32 H          67.2311   94.8527    9.9458 H       1  UNL1        0.2922
@<TRIPOS>BOND
     1    25    26    1
     2    26    27   ar
     3    27    28   ar
     4    28    29   ar
     5    29    24    1
     6    24    22    1
     7    22     1    1
     8     1     2    2
     9     2     3    1
    10     3     4    2
    11     4     6    1
    12     6     7   ar
    13     7     8   ar
    14     8     9   ar
    15     9    10    1
    16     9    11   ar
    17    11    12   ar
    18     4     5    1
    19     5    14    1
    20    14    15   ar
    21    15    16   ar
    22    16    17   ar
    23    17    18    1
    24    17    19   ar
    25    19    20   ar
    26    29    30   ar
    27    30    31   ar
    28    31    26   ar
    29     5     1    1
    30    20    14   ar
    31    12     6   ar
    32    25    32    1
    33    22    23    1
    34    10    13    1
    35    18    21    1
@<TRIPOS>MOLECULE
*****
 32 35 0 0 0
SMALL
GASTEIGER

@<TRIPOS>ATOM
      1 C          63.2136   90.7953   11.7086 C.2     1  UNL1        0.3337
      2 N          63.8038   91.8146   10.7799 N.2     1  UNL1        0.0756
      3 N          65.0245   92.3882   11.4363 N.2     1  UNL1       -0.0381
      4 C          65.1888   91.7233   12.7708 C.2     1  UNL1        0.1207
      5 C          64.0697   90.7388   12.9392 C.3     1  UNL1        0.1739
      6 C          66.2806   91.9952   13.7628 C.ar    1  UNL1        0.0184
      7 C          65.9391   92.4899   15.1371 C.ar    1  UNL1        0.0044
      8 C          67.0309   92.7618   16.1292 C.ar    1  UNL1        0.0367
      9 C          68.4641   92.5389   15.7469 C.ar    1  UNL1        0.1337
     10 O          69.5560   92.8107   16.7389 O.3     1  UNL1       -0.5055
     11 C          68.8056   92.0441   14.3726 C.ar    1  UNL1        0.0367
     12 C          67.7138   91.7723   13.3806 C.ar    1  UNL1        0.0044
     13 H          69.3427   93.1198   17.5973 H       1  UNL1        0.2922
     14 C          63.8458   89.8534   14.1290 C.ar    1  UNL1       -0.0050
     15 C          64.2039   88.3984   14.0592 C.ar    1  UNL1       -0.0002
     16 C          63.9800   87.5130   15.2491 C.ar    1  UNL1        0.0363
     17 C          63.3981   88.0825   16.5089 C.ar    1  UNL1        0.1337
     18 O          63.1743   87.1971   17.6988 O.3     1  UNL1       -0.5055
     19 C          63.0401   89.5374   16.5788 C.ar    1  UNL1        0.0363
     20 C          63.2639   90.4228   15.3889 C.ar    1  UNL1       -0.0002
     21 H          63.3979   86.2882   17.6552 H       1  UNL1        0.2922
     22 N          61.9835   89.9762   11.4520 N.pl3   1  UNL1       -0.2161
     23 H          61.6418   89.3697   12.1483 H       1  UNL1        0.2923
     24 C          61.2740   90.0810   10.1346 C.3     1  UNL1        0.2264
     25 O          59.9070   85.1134    7.0598 O.3     1  UNL1       -0.5055
     26 C          60.2487   86.3553    7.8285 C.ar    1  UNL1        0.1337
     27 C          61.3742   86.3378    8.8199 C.ar    1  UNL1        0.0364
     28 C          61.7160   87.5797    9.5886 C.ar    1  UNL1        0.0028
     29 C          60.9323   88.8391    9.3659 C.ar    1  UNL1        0.0243
     30 C          59.8068   88.8566    8.3745 C.ar    1  UNL1        0.0028
     31 C          59.4650   87.6147    7.6058 C.ar    1  UNL1        0.0364
     32 H          60.3966   84.3267    7.1989 H       1  UNL1        0.2922
@<TRIPOS>BOND
     1    25    26    1
     2    26    27   ar
     3    27    28   ar
     4    28    29   ar
     5    29    24    1
     6    24    22    1
     7    22     1    1
     8     1     2    2
     9     2     3    1
    10     3     4    2
    11     4     6    1
    12     6     7   ar
    13     7     8   ar
    14     8     9   ar
    15     9    10    1
    16     9    11   ar
    17    11    12   ar
    18     4     5    1
    19     5    14    1
    20    14    15   ar
    21    15    16   ar
    22    16    17   ar
    23    17    18    1
    24    17    19   ar
    25    19    20   ar
    26    29    30   ar
    27    30    31   ar
    28    31    26   ar
    29     5     1    1
    30    20    14   ar
    31    12     6   ar
    32    25    32    1
    33    22    23    1
    34    10    13    1
    35    18    21    1
@<TRIPOS>MOLECULE
*****
 32 35 0 0 0
SMALL
GASTEIGER

@<TRIPOS>ATOM
      1 C          62.7621   90.1043   11.8152 C.2     1  UNL1        0.3337
      2 N          63.1986   91.1628   10.8462 N.2     1  UNL1        0.0756
      3 N          64.3832   91.8701   11.4348 N.2     1  UNL1       -0.0381
      4 C          64.6788   91.2488   12.7677 C.2     1  UNL1        0.1207
      5 C          63.6769   90.1574   13.0028 C.3     1  UNL1        0.1739
      6 C          65.7825   91.6485   13.7015 C.ar    1  UNL1        0.0184
      7 C          67.2039   91.6574   13.2225 C.ar    1  UNL1        0.0044
      8 C          68.3076   92.0571   14.1563 C.ar    1  UNL1        0.0367
      9 C          67.9899   92.4481   15.5692 C.ar    1  UNL1        0.1337
     10 O          69.0935   92.8478   16.5031 O.3     1  UNL1       -0.5055
     11 C          66.5684   92.4392   16.0482 C.ar    1  UNL1        0.0367
     12 C          65.4647   92.0395   15.1143 C.ar    1  UNL1        0.0044
     13 H          69.9814   92.8534   16.2039 H       1  UNL1        0.2922
     14 C          63.6029   89.2743   14.2130 C.ar    1  UNL1       -0.0050
     15 C          64.1147   87.8658   14.1461 C.ar    1  UNL1       -0.0002
     16 C          64.0406   86.9827   15.3563 C.ar    1  UNL1        0.0363
     17 C          63.4548   87.5080   16.6334 C.ar    1  UNL1        0.1337
     18 O          63.3807   86.6248   17.8436 O.3     1  UNL1       -0.5055
     19 C          62.9430   88.9163   16.7003 C.ar    1  UNL1        0.0363
     20 C          63.0171   89.7995   15.4901 C.ar    1  UNL1       -0.0002
     21 H          63.7004   85.7450   17.8018 H       1  UNL1        0.2922
     22 N          61.6126   89.1587   11.6293 N.pl3   1  UNL1       -0.2161
     23 H          60.9413   89.0538   12.3418 H       1  UNL1        0.2923
     24 C          61.4859   88.3729   10.3580 C.3     1  UNL1        0.2264
     25 O          63.8609   82.8760    9.9792 O.3     1  UNL1       -0.5055
     26 C          63.2672   84.2502   10.0739 C.ar    1  UNL1        0.1337
     27 C          62.8602   84.8011   11.4084 C.ar    1  UNL1        0.0364
     28 C          62.2664   86.1753   11.5031 C.ar    1  UNL1        0.0028
     29 C          62.0797   86.9987   10.2633 C.ar    1  UNL1        0.0243
     30 C          62.4866   86.4478    8.9288 C.ar    1  UNL1        0.0028
     31 C          63.0804   85.0736    8.8341 C.ar    1  UNL1        0.0364
     32 H          63.9776   82.3617   10.7537 H       1  UNL1        0.2922
@<TRIPOS>BOND
     1    25    26    1
     2    26    27   ar
     3    27    28   ar
     4    28    29   ar
     5    29    24    1
     6    24    22    1
     7    22     1    1
     8     1     2    2
     9     2     3    1
    10     3     4    2
    11     4     6    1
    12     6     7   ar
    13     7     8   ar
    14     8     9   ar
    15     9    10    1
    16     9    11   ar
    17    11    12   ar
    18     4     5    1
    19     5    14    1
    20    14    15   ar
    21    15    16   ar
    22    16    17   ar
    23    17    18    1
    24    17    19   ar
    25    19    20   ar
    26    29    30   ar
    27    30    31   ar
    28    31    26   ar
    29     5     1    1
    30    20    14   ar
    31    12     6   ar
    32    25    32    1
    33    22    23    1
    34    10    13    1
    35    18    21    1
@<TRIPOS>MOLECULE
*****
 32 35 0 0 0
SMALL
GASTEIGER

@<TRIPOS>ATOM
      1 C          63.8250   90.4827   13.1424 C.2     1  UNL1        0.3337
      2 N          62.9478   90.3963   11.9287 N.2     1  UNL1        0.0756
      3 N          63.5036   91.3228   10.8882 N.2     1  UNL1       -0.0381
      4 C          64.7242   91.9819   11.4589 C.2     1  UNL1        0.1207
      5 C          64.9229   91.4627   12.8521 C.3     1  UNL1        0.1739
      6 C          65.5936   92.9843   10.7592 C.ar    1  UNL1        0.0184
      7 C          66.8046   92.5272   10.0012 C.ar    1  UNL1        0.0044
      8 C          67.6739   93.5296    9.3015 C.ar    1  UNL1        0.0367
      9 C          67.3323   94.9889    9.3600 C.ar    1  UNL1        0.1337
     10 O          68.2016   95.9914    8.6604 O.3     1  UNL1       -0.5055
     11 C          66.1213   95.4460   10.1180 C.ar    1  UNL1        0.0367
     12 C          65.2519   94.4436   10.8176 C.ar    1  UNL1        0.0044
     13 H          68.9581   95.7060    8.1868 H       1  UNL1        0.2922
     14 C          66.0257   91.8546   13.7901 C.ar    1  UNL1       -0.0050
     15 C          67.4561   91.7563   13.3489 C.ar    1  UNL1       -0.0002
     16 C          68.5590   92.1482   14.2871 C.ar    1  UNL1        0.0363
     17 C          68.2315   92.6385   15.6663 C.ar    1  UNL1        0.1337
     18 O          69.3344   93.0304   16.6045 O.3     1  UNL1       -0.5055
     19 C          66.8013   92.7369   16.1076 C.ar    1  UNL1        0.0363
     20 C          65.6985   92.3449   15.1694 C.ar    1  UNL1       -0.0002
     21 H          70.2279   92.9690   16.3289 H       1  UNL1        0.2922
     22 N          63.6373   89.7225   14.4219 N.pl3   1  UNL1       -0.2161
     23 H          62.8836   89.9392   15.0171 H       1  UNL1        0.2923
     24 C          64.5977   88.6323   14.7944 C.3     1  UNL1        0.2264
     25 O          62.5931   83.0520   15.7115 O.3     1  UNL1       -0.5055
     26 C          63.0942   84.4471   15.4822 C.ar    1  UNL1        0.1337
     27 C          63.7103   84.8157   14.1652 C.ar    1  UNL1        0.0364
     28 C          64.2115   86.2108   13.9359 C.ar    1  UNL1        0.0028
     29 C          64.0966   87.2372   15.0237 C.ar    1  UNL1        0.0243
     30 C          63.4805   86.8686   16.3406 C.ar    1  UNL1        0.0028
     31 C          62.9793   85.4735   16.5699 C.ar    1  UNL1        0.0364
     32 H          62.6648   82.4108   15.0320 H       1  UNL1        0.2922
@<TRIPOS>BOND
     1    25    26    1
     2    26    27   ar
     3    27    28   ar
     4    28    29   ar
     5    29    24    1
     6    24    22    1
     7    22     1    1
     8     1     2    2
     9     2     3    1
    10     3     4    2
    11     4     6    1
    12     6     7   ar
    13     7     8   ar
    14     8     9   ar
    15     9    10    1
    16     9    11   ar
    17    11    12   ar
    18     4     5    1
    19     5    14    1
    20    14    15   ar
    21    15    16   ar
    22    16    17   ar
    23    17    18    1
    24    17    19   ar
    25    19    20   ar
    26    29    30   ar
    27    30    31   ar
    28    31    26   ar
    29     5     1    1
    30    20    14   ar
    31    12     6   ar
    32    25    32    1
    33    22    23    1
    34    10    13    1
    35    18    21    1
@<TRIPOS>MOLECULE
*****
 32 35 0 0 0
SMALL
GASTEIGER

@<TRIPOS>ATOM
      1 C          63.0404   89.0043   12.4472 C.2     1  UNL1        0.3337
      2 N          62.7170   90.1318   11.5123 N.2     1  UNL1        0.0756
      3 N          62.2704   89.5395   10.2086 N.2     1  UNL1       -0.0381
      4 C          62.3178   88.0458   10.3378 C.2     1  UNL1        0.1207
      5 C          62.7936   87.7150   11.7213 C.3     1  UNL1        0.1739
      6 C          61.9533   87.0566    9.2707 C.ar    1  UNL1        0.0184
      7 C          60.5456   86.9926    8.7565 C.ar    1  UNL1        0.0044
      8 C          60.1811   86.0034    7.6895 C.ar    1  UNL1        0.0367
      9 C          61.2243   85.0781    7.1367 C.ar    1  UNL1        0.1337
     10 O          60.8599   84.0888    6.0697 O.3     1  UNL1       -0.5055
     11 C          62.6319   85.1421    7.6509 C.ar    1  UNL1        0.0367
     12 C          62.9964   86.1313    8.7179 C.ar    1  UNL1        0.0044
     13 H          59.9806   84.0488    5.7484 H       1  UNL1        0.2922
     14 C          62.9885   86.3370   12.2807 C.ar    1  UNL1       -0.0050
     15 C          63.8679   86.1311   13.4784 C.ar    1  UNL1       -0.0002
     16 C          64.0628   84.7530   14.0377 C.ar    1  UNL1        0.0363
     17 C          63.3784   83.5808   13.3995 C.ar    1  UNL1        0.1337
     18 O          63.5733   82.2027   13.9589 O.3     1  UNL1       -0.5055
     19 C          62.4990   83.7866   12.2019 C.ar    1  UNL1        0.0363
     20 C          62.3041   85.1647   11.6425 C.ar    1  UNL1       -0.0002
     21 H          64.1226   82.0741   14.7070 H       1  UNL1        0.2922
     22 N          63.5253   89.1418   13.8600 N.pl3   1  UNL1       -0.2161
     23 H          63.8053   88.3439   14.3642 H       1  UNL1        0.2923
     24 C          63.5837   90.4950   14.5046 C.3     1  UNL1        0.2264
     25 O          68.8280   93.3728   14.9693 O.3     1  UNL1       -0.5055
     26 C          67.5169   92.6534   14.8531 C.ar    1  UNL1        0.1337
     27 C          67.1558   91.9539   13.5763 C.ar    1  UNL1        0.0364
     28 C          65.8447   91.2345   13.4601 C.ar    1  UNL1        0.0028
     29 C          64.8948   91.2144   14.6207 C.ar    1  UNL1        0.0243
     30 C          65.2559   91.9139   15.8976 C.ar    1  UNL1        0.0028
     31 C          66.5669   92.6333   16.0138 C.ar    1  UNL1        0.0364
     32 H          69.4214   93.3853   14.2443 H       1  UNL1        0.2922
@<TRIPOS>BOND
     1    25    26    1
     2    26    27   ar
     3    27    28   ar
     4    28    29   ar
     5    29    24    1
     6    24    22    1
     7    22     1    1
     8     1     2    2
     9     2     3    1
    10     3     4    2
    11     4     6    1
    12     6     7   ar
    13     7     8   ar
    14     8     9   ar
    15     9    10    1
    16     9    11   ar
    17    11    12   ar
    18     4     5    1
    19     5    14    1
    20    14    15   ar
    21    15    16   ar
    22    16    17   ar
    23    17    18    1
    24    17    19   ar
    25    19    20   ar
    26    29    30   ar
    27    30    31   ar
    28    31    26   ar
    29     5     1    1
    30    20    14   ar
    31    12     6   ar
    32    25    32    1
    33    22    23    1
    34    10    13    1
    35    18    21    1
@<TRIPOS>MOLECULE
*****
 32 35 0 0 0
SMALL
GASTEIGER

@<TRIPOS>ATOM
      1 C          63.0370   86.7277   12.6004 C.2     1  UNL1        0.3337
      2 N          62.8531   88.1063   12.0387 N.2     1  UNL1        0.0756
      3 N          62.4570   87.9711   10.5983 N.2     1  UNL1       -0.0381
      4 C          62.3961   86.5088   10.2697 C.2     1  UNL1        0.1207
      5 C          62.7545   85.7403   11.5070 C.3     1  UNL1        0.1739
      6 C          62.0394   85.9185    8.9376 C.ar    1  UNL1        0.0184
      7 C          60.6284   85.9997    8.4350 C.ar    1  UNL1        0.0044
      8 C          60.2717   85.4094    7.1029 C.ar    1  UNL1        0.0367
      9 C          61.3259   84.7381    6.2736 C.ar    1  UNL1        0.1337
     10 O          60.9693   84.1478    4.9415 O.3     1  UNL1       -0.5055
     11 C          62.7368   84.6569    6.7763 C.ar    1  UNL1        0.0367
     12 C          63.0936   85.2472    8.1083 C.ar    1  UNL1        0.0044
     13 H          60.0880   84.1984    4.6274 H       1  UNL1        0.2922
     14 C          62.8192   84.2468   11.6295 C.ar    1  UNL1       -0.0050
     15 C          62.1708   83.5611   12.7956 C.ar    1  UNL1       -0.0002
     16 C          62.2354   82.0675   12.9181 C.ar    1  UNL1        0.0363
     17 C          62.9484   81.2595   11.8746 C.ar    1  UNL1        0.1337
     18 O          63.0131   79.7659   11.9971 O.3     1  UNL1       -0.5055
     19 C          63.5968   81.9451   10.7086 C.ar    1  UNL1        0.0363
     20 C          63.5321   83.4387   10.5861 C.ar    1  UNL1       -0.0002
     21 H          62.6081   79.3376   12.7254 H       1  UNL1        0.2922
     22 N          63.4337   86.3948   14.0081 N.pl3   1  UNL1       -0.2161
     23 H          62.9619   85.6824   14.4971 H       1  UNL1        0.2923
     24 C          64.5491   87.1474   14.6709 C.3     1  UNL1        0.2264
     25 O          63.5938   92.6806   16.7854 O.3     1  UNL1       -0.5055
     26 C          63.8326   91.2973   16.2568 C.ar    1  UNL1        0.1337
     27 C          64.7213   91.0926   15.0659 C.ar    1  UNL1        0.0364
     28 C          64.9602   89.7093   14.5373 C.ar    1  UNL1        0.0028
     29 C          64.3103   88.5307   15.1995 C.ar    1  UNL1        0.0243
     30 C          63.4216   88.7354   16.3904 C.ar    1  UNL1        0.0028
     31 C          63.1828   90.1187   16.9191 C.ar    1  UNL1        0.0364
     32 H          63.9998   93.4168   16.3717 H       1  UNL1        0.2922
@<TRIPOS>BOND
     1    25    26    1
     2    26    27   ar
     3    27    28   ar
     4    28    29   ar
     5    29    24    1
     6    24    22    1
     7    22     1    1
     8     1     2    2
     9     2     3    1
    10     3     4    2
    11     4     6    1
    12     6     7   ar
    13     7     8   ar
    14     8     9   ar
    15     9    10    1
    16     9    11   ar
    17    11    12   ar
    18     4     5    1
    19     5    14    1
    20    14    15   ar
    21    15    16   ar
    22    16    17   ar
    23    17    18    1
    24    17    19   ar
    25    19    20   ar
    26    29    30   ar
    27    30    31   ar
    28    31    26   ar
    29     5     1    1
    30    20    14   ar
    31    12     6   ar
    32    25    32    1
    33    22    23    1
    34    10    13    1
    35    18    21    1
@<TRIPOS>MOLECULE
*****
 32 35 0 0 0
SMALL
GASTEIGER

@<TRIPOS>ATOM
      1 C          62.9578   85.8347   13.6766 C.2     1  UNL1        0.3337
      2 N          63.8018   86.3321   14.8125 N.2     1  UNL1        0.0756
      3 N          64.2194   87.7382   14.4987 N.2     1  UNL1       -0.0381
      4 C          63.6336   88.1098   13.1687 C.2     1  UNL1        0.1207
      5 C          62.8539   86.9334   12.6606 C.3     1  UNL1        0.1739
      6 C          63.7985   89.4266   12.4696 C.ar    1  UNL1        0.0184
      7 C          63.1559   89.6518   11.1330 C.ar    1  UNL1        0.0044
      8 C          63.3209   90.9686   10.4338 C.ar    1  UNL1        0.0367
      9 C          64.1284   92.0602   11.0712 C.ar    1  UNL1        0.1337
     10 O          64.2934   93.3770   10.3722 O.3     1  UNL1       -0.5055
     11 C          64.7710   91.8350   12.4078 C.ar    1  UNL1        0.0367
     12 C          64.6061   90.5182   13.1070 C.ar    1  UNL1        0.0044
     13 H          63.8920   93.5178    9.5373 H       1  UNL1        0.2922
     14 C          62.1022   86.8673   11.3643 C.ar    1  UNL1       -0.0050
     15 C          60.8029   87.6013   11.2124 C.ar    1  UNL1       -0.0002
     16 C          60.0512   87.5352    9.9160 C.ar    1  UNL1        0.0363
     17 C          60.5989   86.7350    8.7715 C.ar    1  UNL1        0.1337
     18 O          59.8472   86.6689    7.4751 O.3     1  UNL1       -0.5055
     19 C          61.8981   86.0010    8.9233 C.ar    1  UNL1        0.0363
     20 C          62.6498   86.0672   10.2197 C.ar    1  UNL1       -0.0002
     21 H          59.0356   87.1274    7.3802 H       1  UNL1        0.2922
     22 N          62.3283   84.4770   13.5745 N.pl3   1  UNL1       -0.2161
     23 H          61.3568   84.3938   13.4382 H       1  UNL1        0.2923
     24 C          63.1789   83.2461   13.6802 C.3     1  UNL1        0.2264
     25 O          62.8811   79.0199    9.4316 O.3     1  UNL1       -0.5055
     26 C          62.9555   80.0764   10.4937 C.ar    1  UNL1        0.1337
     27 C          63.3924   81.4669   10.1392 C.ar    1  UNL1        0.0364
     28 C          63.4668   82.5234   11.2013 C.ar    1  UNL1        0.0028
     29 C          63.1044   82.1895   12.6180 C.ar    1  UNL1        0.0243
     30 C          62.6676   80.7991   12.9726 C.ar    1  UNL1        0.0028
     31 C          62.5931   79.7425   11.9104 C.ar    1  UNL1        0.0364
     32 H          63.1075   79.2285    8.5466 H       1  UNL1        0.2922
@<TRIPOS>BOND
     1    25    26    1
     2    26    27   ar
     3    27    28   ar
     4    28    29   ar
     5    29    24    1
     6    24    22    1
     7    22     1    1
     8     1     2    2
     9     2     3    1
    10     3     4    2
    11     4     6    1
    12     6     7   ar
    13     7     8   ar
    14     8     9   ar
    15     9    10    1
    16     9    11   ar
    17    11    12   ar
    18     4     5    1
    19     5    14    1
    20    14    15   ar
    21    15    16   ar
    22    16    17   ar
    23    17    18    1
    24    17    19   ar
    25    19    20   ar
    26    29    30   ar
    27    30    31   ar
    28    31    26   ar
    29     5     1    1
    30    20    14   ar
    31    12     6   ar
    32    25    32    1
    33    22    23    1
    34    10    13    1
    35    18    21    1
