@<TRIPOS>MOLECULE
*****
 22 24 0 0 0
SMALL
GASTEIGER

@<TRIPOS>ATOM
      1 C          63.9501   88.6557   15.0795 C.ar    1  UNL1        0.1030
      2 C          63.2192   88.9065   16.3652 C.ar    1  UNL1        0.1180
      3 N          62.8566   87.7572   17.2583 N.ar    1  UNL1       -0.2395
      4 C          63.2250   86.3571   16.8658 C.ar    1  UNL1        0.1149
      5 C          63.9559   86.1063   15.5801 C.ar    1  UNL1        0.0940
      6 N          64.3184   87.2557   14.6870 N.ar    1  UNL1       -0.2450
      7 C          63.5326   90.0533   12.9295 C.ar    1  UNL1        0.1424
      8 C          63.8951   91.2026   12.0364 C.ar    1  UNL1        0.0665
      9 C          65.0378   92.1037   12.4003 C.ar    1  UNL1        0.1432
     10 F          65.4003   93.2530   11.5072 F       1  UNL1       -0.2041
     11 C          65.8178   91.8555   13.6572 C.ar    1  UNL1        0.0299
     12 C          65.4553   90.7062   14.5502 C.ar    1  UNL1        0.0069
     13 C          64.3126   89.8051   14.1864 C.ar    1  UNL1        0.0533
     14 C          62.5265   88.1928   11.4207 C.3     1  UNL1        0.2525
     15 O          62.3899   89.1521   12.5656 O.3     1  UNL1       -0.4713
     16 C          64.3242   84.7062   15.1876 C.3     1  UNL1        0.1168
     17 N          63.2931   83.6180   15.2357 N.3     1  UNL1       -0.2924
     18 H          62.5758   83.9209   15.8946 H       1  UNL1        0.1236
     19 C          62.5819   83.2026   13.9820 C.3     1  UNL1        0.0688
     20 C          62.0399   81.8099   13.8535 C.3     1  UNL1        0.0158
     21 C          62.2034   80.3889   13.4021 C.3     1  UNL1        0.0014
     22 C          60.9376   80.8187   14.0824 C.3     1  UNL1        0.0014
@<TRIPOS>BOND
     1    14    15    1
     2    15     7    1
     3     7     8   ar
     4     8     9   ar
     5     9    10    1
     6     9    11   ar
     7    11    12   ar
     8    12    13   ar
     9    13     1    1
    10     1     2   ar
    11     2     3   ar
    12     3     4   ar
    13     4     5   ar
    14     5    16    1
    15    16    17    1
    16    17    19    1
    17    19    20    1
    18    20    21    1
    19    21    22    1
    20     5     6   ar
    21    13     7   ar
    22     6     1   ar
    23    22    20    1
    24    17    18    1
@<TRIPOS>MOLECULE
*****
 22 24 0 0 0
SMALL
GASTEIGER

@<TRIPOS>ATOM
      1 C          62.7175   86.5699   12.0664 C.ar    1  UNL1        0.1030
      2 C          63.2554   87.8361   12.6642 C.ar    1  UNL1        0.1180
      3 N          64.0611   87.7855   13.9284 N.ar    1  UNL1       -0.2395
      4 C          64.3288   86.4686   14.5949 C.ar    1  UNL1        0.1149
      5 C          63.7909   85.2024   13.9971 C.ar    1  UNL1        0.0940
      6 N          62.9852   85.2530   12.7328 N.ar    1  UNL1       -0.2450
      7 C          60.6395   87.4137   10.7548 C.ar    1  UNL1        0.1424
      8 C          59.8339   87.4644    9.4906 C.ar    1  UNL1        0.0665
      9 C          60.3005   86.7219    8.2736 C.ar    1  UNL1        0.1432
     10 F          59.4948   86.7726    7.0094 F       1  UNL1       -0.2041
     11 C          61.5727   85.9288    8.3209 C.ar    1  UNL1        0.0299
     12 C          62.3784   85.8781    9.5852 C.ar    1  UNL1        0.0069
     13 C          61.9118   86.6206   10.8021 C.ar    1  UNL1        0.0533
     14 C          59.7083   89.5773   11.8511 C.3     1  UNL1        0.2525
     15 O          60.1729   88.1562   11.9718 O.3     1  UNL1       -0.4713
     16 C          64.0587   83.8855   14.6635 C.3     1  UNL1        0.1168
     17 N          62.9447   83.1521   15.3499 N.3     1  UNL1       -0.2924
     18 H          62.4102   83.8482   15.8697 H       1  UNL1        0.1236
     19 C          61.9573   82.3624   14.5426 C.3     1  UNL1        0.0688
     20 C          62.3888   81.7032   13.2662 C.3     1  UNL1        0.0158
     21 C          62.8010   81.8030   11.8274 C.3     1  UNL1        0.0014
     22 C          62.7238   80.4615   12.4941 C.3     1  UNL1        0.0014
@<TRIPOS>BOND
     1    14    15    1
     2    15     7    1
     3     7     8   ar
     4     8     9   ar
     5     9    10    1
     6     9    11   ar
     7    11    12   ar
     8    12    13   ar
     9    13     1    1
    10     1     2   ar
    11     2     3   ar
    12     3     4   ar
    13     4     5   ar
    14     5    16    1
    15    16    17    1
    16    17    19    1
    17    19    20    1
    18    20    21    1
    19    21    22    1
    20     5     6   ar
    21    13     7   ar
    22     6     1   ar
    23    22    20    1
    24    17    18    1
@<TRIPOS>MOLECULE
*****
 22 24 0 0 0
SMALL
GASTEIGER

@<TRIPOS>ATOM
      1 C          62.6629   89.1910   11.1919 C.ar    1  UNL1        0.1030
      2 C          63.1039   90.5755   10.8194 C.ar    1  UNL1        0.1180
      3 N          63.9224   91.3859   11.7803 N.ar    1  UNL1       -0.2395
      4 C          64.3000   90.8118   13.1137 C.ar    1  UNL1        0.1149
      5 C          63.8590   89.4273   13.4862 C.ar    1  UNL1        0.0940
      6 N          63.0404   88.6169   12.5252 N.ar    1  UNL1       -0.2450
      7 C          60.5281   88.9053    9.7389 C.ar    1  UNL1        0.1424
      8 C          59.7096   88.0949    8.7780 C.ar    1  UNL1        0.0665
      9 C          60.2074   86.7599    8.3091 C.ar    1  UNL1        0.1432
     10 F          59.3889   85.9495    7.3482 F       1  UNL1       -0.2041
     11 C          61.5237   86.2352    8.8012 C.ar    1  UNL1        0.0299
     12 C          62.3421   87.0456    9.7621 C.ar    1  UNL1        0.0069
     13 C          61.8444   88.3806   10.2309 C.ar    1  UNL1        0.0533
     14 C          59.3309   90.3581   11.5294 C.3     1  UNL1        0.2525
     15 O          60.0303   90.2404   10.2078 O.3     1  UNL1       -0.4713
     16 C          64.2365   88.8532   14.8195 C.3     1  UNL1        0.1168
     17 N          63.7372   87.4968   15.2205 N.3     1  UNL1       -0.2924
     18 H          62.8119   87.3889   14.8051 H       1  UNL1        0.1236
     19 C          64.5211   86.2710   14.8557 C.3     1  UNL1        0.0688
     20 C          63.9920   85.3228   13.8208 C.3     1  UNL1        0.0158
     21 C          62.9477   84.9550   12.8088 C.3     1  UNL1        0.0014
     22 C          64.1198   84.0482   13.0405 C.3     1  UNL1        0.0014
@<TRIPOS>BOND
     1    14    15    1
     2    15     7    1
     3     7     8   ar
     4     8     9   ar
     5     9    10    1
     6     9    11   ar
     7    11    12   ar
     8    12    13   ar
     9    13     1    1
    10     1     2   ar
    11     2     3   ar
    12     3     4   ar
    13     4     5   ar
    14     5    16    1
    15    16    17    1
    16    17    19    1
    17    19    20    1
    18    20    21    1
    19    21    22    1
    20     5     6   ar
    21    13     7   ar
    22     6     1   ar
    23    22    20    1
    24    17    18    1
@<TRIPOS>MOLECULE
*****
 22 24 0 0 0
SMALL
GASTEIGER

@<TRIPOS>ATOM
      1 C          62.7766   84.9732   10.8789 C.ar    1  UNL1        0.1030
      2 C          63.6618   84.0765   10.0648 C.ar    1  UNL1        0.1180
      3 N          64.4376   82.9807   10.7335 N.ar    1  UNL1       -0.2395
      4 C          64.3283   82.7814   12.2162 C.ar    1  UNL1        0.1149
      5 C          63.4432   83.6780   13.0302 C.ar    1  UNL1        0.0940
      6 N          62.6674   84.7739   12.3615 N.ar    1  UNL1       -0.2450
      7 C          62.0474   87.4640   10.7597 C.ar    1  UNL1        0.1424
      8 C          61.2716   88.5598   10.0909 C.ar    1  UNL1        0.0665
      9 C          60.4492   88.2607    8.8727 C.ar    1  UNL1        0.1432
     10 F          59.6733   89.3566    8.2040 F       1  UNL1       -0.2041
     11 C          60.4025   86.8658    8.3232 C.ar    1  UNL1        0.0299
     12 C          61.1783   85.7700    8.9919 C.ar    1  UNL1        0.0069
     13 C          62.0008   86.0691   10.2101 C.ar    1  UNL1        0.0533
     14 C          63.1908   89.1839   12.3359 C.3     1  UNL1        0.2525
     15 O          62.8699   87.7631   11.9779 O.3     1  UNL1       -0.4713
     16 C          63.3339   83.4788   14.5129 C.3     1  UNL1        0.1168
     17 N          64.2536   84.2183   15.4388 N.3     1  UNL1       -0.2924
     18 H          65.2050   83.9590   15.1779 H       1  UNL1        0.1236
     19 C          64.2136   85.7167   15.4968 C.3     1  UNL1        0.0688
     20 C          63.4421   86.4049   16.5835 C.3     1  UNL1        0.0158
     21 C          62.5882   86.3346   17.8148 C.3     1  UNL1        0.0014
     22 C          62.9595   87.6671   17.2346 C.3     1  UNL1        0.0014
@<TRIPOS>BOND
     1    14    15    1
     2    15     7    1
     3     7     8   ar
     4     8     9   ar
     5     9    10    1
     6     9    11   ar
     7    11    12   ar
     8    12    13   ar
     9    13     1    1
    10     1     2   ar
    11     2     3   ar
    12     3     4   ar
    13     4     5   ar
    14     5    16    1
    15    16    17    1
    16    17    19    1
    17    19    20    1
    18    20    21    1
    19    21    22    1
    20     5     6   ar
    21    13     7   ar
    22     6     1   ar
    23    22    20    1
    24    17    18    1
@<TRIPOS>MOLECULE
*****
 22 24 0 0 0
SMALL
GASTEIGER

@<TRIPOS>ATOM
      1 C          61.9989   87.1698   11.2262 C.ar    1  UNL1        0.1030
      2 C          60.5623   87.4784   10.9249 C.ar    1  UNL1        0.1180
      3 N          60.0160   88.8482   11.1988 N.ar    1  UNL1       -0.2395
      4 C          60.9064   89.9096   11.7740 C.ar    1  UNL1        0.1149
      5 C          62.3431   89.6010   12.0753 C.ar    1  UNL1        0.0940
      6 N          62.8893   88.2310   11.8014 N.ar    1  UNL1       -0.2450
      7 C          62.7722   84.8427   12.0846 C.ar    1  UNL1        0.1424
      8 C          63.3184   83.4729   11.8106 C.ar    1  UNL1        0.0665
      9 C          63.6376   83.0601   10.4043 C.ar    1  UNL1        0.1432
     10 F          64.1839   81.6902   10.1303 F       1  UNL1       -0.2041
     11 C          63.4105   84.0173    9.2719 C.ar    1  UNL1        0.0299
     12 C          62.8643   85.3871    9.5459 C.ar    1  UNL1        0.0069
     13 C          62.5452   85.7998   10.9522 C.ar    1  UNL1        0.0533
     14 C          62.4864   84.2417   14.5960 C.3     1  UNL1        0.2525
     15 O          62.4531   85.2554   13.4909 O.3     1  UNL1       -0.4713
     16 C          63.2334   90.6622   12.6505 C.3     1  UNL1        0.1168
     17 N          63.1890   90.9634   14.1193 N.3     1  UNL1       -0.2924
     18 H          62.4525   90.3806   14.5172 H       1  UNL1        0.1236
     19 C          64.4103   90.7553   14.9649 C.3     1  UNL1        0.0688
     20 C          65.7291   91.3224   14.5301 C.3     1  UNL1        0.0158
     21 C          67.1867   91.5659   14.7874 C.3     1  UNL1        0.0014
     22 C          66.5559   92.0610   13.5198 C.3     1  UNL1        0.0014
@<TRIPOS>BOND
     1    14    15    1
     2    15     7    1
     3     7     8   ar
     4     8     9   ar
     5     9    10    1
     6     9    11   ar
     7    11    12   ar
     8    12    13   ar
     9    13     1    1
    10     1     2   ar
    11     2     3   ar
    12     3     4   ar
    13     4     5   ar
    14     5    16    1
    15    16    17    1
    16    17    19    1
    17    19    20    1
    18    20    21    1
    19    21    22    1
    20     5     6   ar
    21    13     7   ar
    22     6     1   ar
    23    22    20    1
    24    17    18    1
@<TRIPOS>MOLECULE
*****
 22 24 0 0 0
SMALL
GASTEIGER

@<TRIPOS>ATOM
      1 C          63.9162   89.1403   14.5561 C.ar    1  UNL1        0.1030
      2 C          63.2712   89.5457   15.8483 C.ar    1  UNL1        0.1180
      3 N          62.9930   88.5162   16.9031 N.ar    1  UNL1       -0.2395
      4 C          63.3598   87.0812   16.6657 C.ar    1  UNL1        0.1149
      5 C          64.0047   86.6757   15.3735 C.ar    1  UNL1        0.0940
      6 N          64.2829   87.7054   14.3187 N.ar    1  UNL1       -0.2450
      7 C          65.2554   91.2061   13.7260 C.ar    1  UNL1        0.1424
      8 C          65.5335   92.2356   12.6712 C.ar    1  UNL1        0.0665
      9 C          64.7506   92.2290   11.3917 C.ar    1  UNL1        0.1432
     10 F          65.0288   93.2587   10.3369 F       1  UNL1       -0.2041
     11 C          63.6896   91.1929   11.1670 C.ar    1  UNL1        0.0299
     12 C          63.4114   90.1633   12.2218 C.ar    1  UNL1        0.0069
     13 C          64.1944   90.1699   13.5013 C.ar    1  UNL1        0.0533
     14 C          66.1664   92.4786   15.7998 C.3     1  UNL1        0.2525
     15 O          66.0383   91.2127   15.0054 O.3     1  UNL1       -0.4713
     16 C          64.3715   85.2408   15.1362 C.3     1  UNL1        0.1168
     17 N          63.3321   84.1683   15.2747 N.3     1  UNL1       -0.2924
     18 H          62.6024   84.5421   15.8815 H       1  UNL1        0.1236
     19 C          62.6461   83.6266   14.0556 C.3     1  UNL1        0.0688
     20 C          62.2612   82.1782   13.9930 C.3     1  UNL1        0.0158
     21 C          62.6302   80.7455   13.7455 C.3     1  UNL1        0.0014
     22 C          61.2255   81.1022   14.1319 C.3     1  UNL1        0.0014
@<TRIPOS>BOND
     1    14    15    1
     2    15     7    1
     3     7     8   ar
     4     8     9   ar
     5     9    10    1
     6     9    11   ar
     7    11    12   ar
     8    12    13   ar
     9    13     1    1
    10     1     2   ar
    11     2     3   ar
    12     3     4   ar
    13     4     5   ar
    14     5    16    1
    15    16    17    1
    16    17    19    1
    17    19    20    1
    18    20    21    1
    19    21    22    1
    20     5     6   ar
    21    13     7   ar
    22     6     1   ar
    23    22    20    1
    24    17    18    1
@<TRIPOS>MOLECULE
*****
 22 24 0 0 0
SMALL
GASTEIGER

@<TRIPOS>ATOM
      1 C          62.6446   85.4765   12.3019 C.ar    1  UNL1        0.1030
      2 C          63.4518   86.4806   13.0702 C.ar    1  UNL1        0.1180
      3 N          63.4258   87.9265   12.6720 N.ar    1  UNL1       -0.2395
      4 C          62.5927   88.3685   11.5055 C.ar    1  UNL1        0.1149
      5 C          61.7855   87.3644   10.7372 C.ar    1  UNL1        0.0940
      6 N          61.8115   85.9184   11.1354 N.ar    1  UNL1       -0.2450
      7 C          62.2474   83.6252   14.0808 C.ar    1  UNL1        0.1424
      8 C          62.2734   82.1792   14.4790 C.ar    1  UNL1        0.0665
      9 C          62.7225   81.1387   13.4964 C.ar    1  UNL1        0.1432
     10 F          62.7485   79.6927   13.8946 F       1  UNL1       -0.2041
     11 C          63.1457   81.5441   12.1156 C.ar    1  UNL1        0.0299
     12 C          63.1197   82.9900   11.7175 C.ar    1  UNL1        0.0069
     13 C          62.6706   84.0305   12.7001 C.ar    1  UNL1        0.0533
     14 C          62.5820   84.8973   16.3213 C.3     1  UNL1        0.2525
     15 O          61.7983   84.6657   15.0635 O.3     1  UNL1       -0.4713
     16 C          60.9524   87.8062    9.5708 C.3     1  UNL1        0.1168
     17 N          59.8654   86.9160    9.0456 N.3     1  UNL1       -0.2924
     18 H          59.0256   87.4900    8.9700 H       1  UNL1        0.1236
     19 C          60.0359   86.2222    7.7266 C.3     1  UNL1        0.0688
     20 C          61.3172   85.5071    7.4155 C.3     1  UNL1        0.0158
     21 C          62.1429   84.6652    6.4884 C.3     1  UNL1        0.0014
     22 C          62.7107   85.1103    7.8035 C.3     1  UNL1        0.0014
@<TRIPOS>BOND
     1    14    15    1
     2    15     7    1
     3     7     8   ar
     4     8     9   ar
     5     9    10    1
     6     9    11   ar
     7    11    12   ar
     8    12    13   ar
     9    13     1    1
    10     1     2   ar
    11     2     3   ar
    12     3     4   ar
    13     4     5   ar
    14     5    16    1
    15    16    17    1
    16    17    19    1
    17    19    20    1
    18    20    21    1
    19    21    22    1
    20     5     6   ar
    21    13     7   ar
    22     6     1   ar
    23    22    20    1
    24    17    18    1
@<TRIPOS>MOLECULE
*****
 22 24 0 0 0
SMALL
GASTEIGER

@<TRIPOS>ATOM
      1 C          62.2275   85.3913   11.0426 C.ar    1  UNL1        0.1030
      2 C          62.5682   85.4982    9.5857 C.ar    1  UNL1        0.1180
      3 N          62.0835   86.6711    8.7862 N.ar    1  UNL1       -0.2395
      4 C          61.2581   87.7372    9.4436 C.ar    1  UNL1        0.1149
      5 C          60.9174   87.6304   10.9005 C.ar    1  UNL1        0.0940
      6 N          61.4021   86.4574   11.7000 N.ar    1  UNL1       -0.2450
      7 C          63.3993   84.4394   13.1570 C.ar    1  UNL1        0.1424
      8 C          63.8840   83.2664   13.9565 C.ar    1  UNL1        0.0665
      9 C          63.6817   81.8723   13.4410 C.ar    1  UNL1        0.1432
     10 F          64.1664   80.6993   14.2405 F       1  UNL1       -0.2041
     11 C          62.9946   81.6513   12.1261 C.ar    1  UNL1        0.0299
     12 C          62.5099   82.8243   11.3267 C.ar    1  UNL1        0.0069
     13 C          62.7123   84.2183   11.8421 C.ar    1  UNL1        0.0533
     14 C          64.4399   86.0670   14.8943 C.3     1  UNL1        0.2525
     15 O          63.6017   85.8334   13.6725 O.3     1  UNL1       -0.4713
     16 C          60.0920   88.6964   11.5578 C.3     1  UNL1        0.1168
     17 N          60.7536   89.7381   12.4106 N.3     1  UNL1       -0.2924
     18 H          60.4453   89.5734   13.3688 H       1  UNL1        0.1236
     19 C          62.2499   89.8370   12.4481 C.3     1  UNL1        0.0688
     20 C          62.9717   90.6761   11.4357 C.3     1  UNL1        0.0158
     21 C          63.0945   91.2061   10.0378 C.3     1  UNL1        0.0014
     22 C          64.0989   91.5996   11.0801 C.3     1  UNL1        0.0014
@<TRIPOS>BOND
     1    14    15    1
     2    15     7    1
     3     7     8   ar
     4     8     9   ar
     5     9    10    1
     6     9    11   ar
     7    11    12   ar
     8    12    13   ar
     9    13     1    1
    10     1     2   ar
    11     2     3   ar
    12     3     4   ar
    13     4     5   ar
    14     5    16    1
    15    16    17    1
    16    17    19    1
    17    19    20    1
    18    20    21    1
    19    21    22    1
    20     5     6   ar
    21    13     7   ar
    22     6     1   ar
    23    22    20    1
    24    17    18    1
@<TRIPOS>MOLECULE
*****
 22 24 0 0 0
SMALL
GASTEIGER

@<TRIPOS>ATOM
      1 C          62.7885   89.7999   11.9409 C.ar    1  UNL1        0.1030
      2 C          61.6846   90.4732   11.1806 C.ar    1  UNL1        0.1180
      3 N          60.6841   89.6502   10.4246 N.ar    1  UNL1       -0.2395
      4 C          60.7875   88.1537   10.4290 C.ar    1  UNL1        0.1149
      5 C          61.8913   87.4804   11.1893 C.ar    1  UNL1        0.0940
      6 N          62.8919   88.3035   11.9453 N.ar    1  UNL1       -0.2450
      7 C          63.9434   90.4420   14.1779 C.ar    1  UNL1        0.1424
      8 C          64.9439   91.2652   14.9338 C.ar    1  UNL1        0.0665
      9 C          65.7901   92.2693   14.2087 C.ar    1  UNL1        0.1432
     10 F          66.7906   93.0924   14.9647 F       1  UNL1       -0.2041
     11 C          65.6357   92.4503   12.7277 C.ar    1  UNL1        0.0299
     12 C          64.6352   91.6271   11.9718 C.ar    1  UNL1        0.0069
     13 C          63.7891   90.6230   12.6969 C.ar    1  UNL1        0.0533
     14 C          63.1320   89.3700   16.4010 C.3     1  UNL1        0.2525
     15 O          63.0972   89.4379   14.9030 O.3     1  UNL1       -0.4713
     16 C          61.9947   85.9840   11.1937 C.3     1  UNL1        0.1168
     17 N          62.3218   85.2585   12.4651 N.3     1  UNL1       -0.2924
     18 H          61.4996   84.7063   12.7090 H       1  UNL1        0.1236
     19 C          63.4984   84.3295   12.5172 C.3     1  UNL1        0.0688
     20 C          63.7033   83.3170   11.4296 C.3     1  UNL1        0.0158
     21 C          63.5404   81.9203   10.9076 C.3     1  UNL1        0.0014
     22 C          64.2210   82.9602   10.0678 C.3     1  UNL1        0.0014
@<TRIPOS>BOND
     1    14    15    1
     2    15     7    1
     3     7     8   ar
     4     8     9   ar
     5     9    10    1
     6     9    11   ar
     7    11    12   ar
     8    12    13   ar
     9    13     1    1
    10     1     2   ar
    11     2     3   ar
    12     3     4   ar
    13     4     5   ar
    14     5    16    1
    15    16    17    1
    16    17    19    1
    17    19    20    1
    18    20    21    1
    19    21    22    1
    20     5     6   ar
    21    13     7   ar
    22     6     1   ar
    23    22    20    1
    24    17    18    1
