@<TRIPOS>MOLECULE
*****
 39 43 0 0 0
SMALL
GASTEIGER

@<TRIPOS>ATOM
      1 N          63.9208   86.7640   13.6905 N.ar    1  UNL1       -0.3063
      2 C          63.1910   85.7230   12.8944 C.ar    1  UNL1        0.1240
      3 C          62.5865   86.3946   11.6970 C.ar    1  UNL1        0.1156
      4 C          62.9427   87.8505   11.7532 C.ar    1  UNL1        0.0966
      5 C          63.7673   88.0789   12.9852 C.ar    1  UNL1        0.1349
      6 C          64.2719   89.4546   13.3056 C.ar    1  UNL1        0.2819
      7 O          65.0965   89.6830   14.5376 O.2     1  UNL1       -0.2652
      8 N          63.9519   90.6021   12.3941 N.ar    1  UNL1       -0.2400
      9 C          63.1273   90.3738   11.1620 C.ar    1  UNL1        0.3343
     10 O          62.8073   91.5212   10.2504 O.2     1  UNL1       -0.2462
     11 N          62.6227   88.9980   10.8416 N.ar    1  UNL1       -0.2770
     12 C          61.7981   88.7697    9.6096 C.3     1  UNL1        0.1351
     13 N          63.0844   84.2662   13.2357 N.pl3   1  UNL1       -0.2925
     14 C          63.9190   83.3397   12.4020 C.3     1  UNL1        0.0936
     15 C          64.0327   81.8468   12.4922 C.3     1  UNL1        0.0385
     16 C          63.3398   80.9116   13.4384 C.3     1  UNL1        0.0704
     17 N          62.3621   81.2383   14.5281 N.3     1  UNL1       -0.2960
     18 C          61.8359   82.5810   14.9406 C.3     1  UNL1        0.0903
     19 C          62.1573   83.9286   14.3655 C.3     1  UNL1        0.1092
     20 H          62.7867   80.8592   15.3745 H       1  UNL1        0.1233
     21 C          61.7693   85.7273   10.6308 C.1     1  UNL1        0.1047
     22 N          60.9522   85.0599    9.5644 N.1     1  UNL1       -0.1907
     23 C          64.6721   86.5310   14.9677 C.3     1  UNL1        0.1332
     24 C          62.4650   86.5575   18.2659 C.3     1  UNL1        0.0261
     25 C          63.1929   87.0332   17.0437 C.2     1  UNL1       -0.0460
     26 C          63.1695   88.4872   16.6753 C.3     1  UNL1        0.0261
     27 C          63.9442   86.0552   16.1899 C.2     1  UNL1       -0.0102
     28 C          64.4565   91.9778   12.7145 C.3     1  UNL1        0.1791
     29 C          65.3375   92.6998   11.7384 C.ar    1  UNL1        0.1617
     30 N          66.6132   92.0659   11.2684 N.ar    1  UNL1       -0.2330
     31 C          67.4942   92.7877   10.2924 C.ar    1  UNL1        0.0622
     32 C          68.7699   92.1538    9.8224 C.3     1  UNL1        0.0522
     33 C          67.0996   94.1435    9.7863 C.ar    1  UNL1        0.0313
     34 C          67.9806   94.8654    8.8103 C.ar    1  UNL1        0.0027
     35 C          67.5859   96.2212    8.3042 C.ar    1  UNL1        0.0001
     36 C          66.3103   96.8550    8.7742 C.ar    1  UNL1        0.0015
     37 C          65.4293   96.1332    9.7502 C.ar    1  UNL1        0.0192
     38 C          65.8239   94.7774   10.2563 C.ar    1  UNL1        0.0838
     39 N          64.9429   94.0555   11.2324 N.ar    1  UNL1       -0.2287
@<TRIPOS>BOND
     1    24    25    1
     2    25    26    1
     3    25    27    2
     4    27    23    1
     5    23     1    1
     6     1     2   ar
     7     2    13    1
     8    13    14    1
     9    14    15    1
    10    15    16    1
    11    16    17    1
    12    17    18    1
    13    18    19    1
    14     2     3   ar
    15     3    21    1
    16    21    22    3
    17     3     4   ar
    18     4     5   ar
    19     5     6   ar
    20     6     7    2
    21     6     8   ar
    22     8    28    1
    23    28    29    1
    24    29    30   ar
    25    30    31   ar
    26    31    32    1
    27    31    33   ar
    28    33    34   ar
    29    34    35   ar
    30    35    36   ar
    31    36    37   ar
    32    37    38   ar
    33    38    39   ar
    34     8     9   ar
    35     9    10    2
    36     9    11   ar
    37    11    12    1
    38     5     1   ar
    39    39    29   ar
    40    19    13    1
    41    11     4   ar
    42    38    33   ar
    43    17    20    1
@<TRIPOS>MOLECULE
*****
 39 43 0 0 0
SMALL
GASTEIGER

@<TRIPOS>ATOM
      1 N          63.6659   86.3222   13.4219 N.ar    1  UNL1       -0.3063
      2 C          62.9142   85.4307   12.4784 C.ar    1  UNL1        0.1240
      3 C          62.3440   86.2869   11.3867 C.ar    1  UNL1        0.1156
      4 C          62.7432   87.7075   11.6556 C.ar    1  UNL1        0.0966
      5 C          63.5602   87.7294   12.9133 C.ar    1  UNL1        0.1349
      6 C          64.1023   89.0278   13.4331 C.ar    1  UNL1        0.2819
      7 O          64.9193   89.0497   14.6909 O.2     1  UNL1       -0.2652
      8 N          63.8275   90.3044   12.6951 N.ar    1  UNL1       -0.2400
      9 C          63.0105   90.2826   11.4372 C.ar    1  UNL1        0.3343
     10 O          62.7356   91.5592   10.6992 O.2     1  UNL1       -0.2462
     11 N          62.4683   88.9842   10.9175 N.ar    1  UNL1       -0.2770
     12 C          61.6514   88.9623    9.6597 C.3     1  UNL1        0.1351
     13 N          62.7599   83.9439   12.6044 N.pl3   1  UNL1       -0.2925
     14 C          63.2365   83.1385   11.4322 C.3     1  UNL1        0.0936
     15 C          63.2203   81.6494   11.2520 C.3     1  UNL1        0.0385
     16 C          62.7235   80.5981   12.1995 C.3     1  UNL1        0.0704
     17 N          62.1202   80.7761   13.5612 N.3     1  UNL1       -0.2960
     18 C          61.8646   82.0494   14.3118 C.3     1  UNL1        0.0903
     19 C          62.1493   83.4593   13.8859 C.3     1  UNL1        0.1092
     20 H          62.7205   80.2309   14.1799 H       1  UNL1        0.1233
     21 C          61.5193   85.8067   10.2294 C.1     1  UNL1        0.1047
     22 N          60.6946   85.3266    9.0721 N.1     1  UNL1       -0.1907
     23 C          64.3952   85.8836   14.6571 C.3     1  UNL1        0.1332
     24 C          62.8160   86.8327   18.1721 C.3     1  UNL1        0.0261
     25 C          63.0556   86.1282   16.8697 C.2     1  UNL1       -0.0460
     26 C          62.1952   84.9637   16.4776 C.3     1  UNL1        0.0261
     27 C          64.1556   86.5881   15.9595 C.2     1  UNL1       -0.0102
     28 C          64.3696   91.6028   13.2148 C.3     1  UNL1        0.1791
     29 C          65.2135   92.4713   12.3295 C.ar    1  UNL1        0.1617
     30 N          65.2105   93.9597   12.5159 N.ar    1  UNL1       -0.2330
     31 C          66.0543   94.8281   11.6307 C.ar    1  UNL1        0.0622
     32 C          66.0513   96.3165   11.8172 C.3     1  UNL1        0.0522
     33 C          66.9011   94.2082   10.5589 C.ar    1  UNL1        0.0313
     34 C          67.7449   95.0767    9.6736 C.ar    1  UNL1        0.0027
     35 C          68.5917   94.4568    8.6019 C.ar    1  UNL1        0.0001
     36 C          68.5947   92.9684    8.4154 C.ar    1  UNL1        0.0015
     37 C          67.7509   92.1000    9.3007 C.ar    1  UNL1        0.0192
     38 C          66.9041   92.7199   10.3724 C.ar    1  UNL1        0.0838
     39 N          66.0602   91.8514   11.2577 N.ar    1  UNL1       -0.2287
@<TRIPOS>BOND
     1    24    25    1
     2    25    26    1
     3    25    27    2
     4    27    23    1
     5    23     1    1
     6     1     2   ar
     7     2    13    1
     8    13    14    1
     9    14    15    1
    10    15    16    1
    11    16    17    1
    12    17    18    1
    13    18    19    1
    14     2     3   ar
    15     3    21    1
    16    21    22    3
    17     3     4   ar
    18     4     5   ar
    19     5     6   ar
    20     6     7    2
    21     6     8   ar
    22     8    28    1
    23    28    29    1
    24    29    30   ar
    25    30    31   ar
    26    31    32    1
    27    31    33   ar
    28    33    34   ar
    29    34    35   ar
    30    35    36   ar
    31    36    37   ar
    32    37    38   ar
    33    38    39   ar
    34     8     9   ar
    35     9    10    2
    36     9    11   ar
    37    11    12    1
    38     5     1   ar
    39    39    29   ar
    40    19    13    1
    41    11     4   ar
    42    38    33   ar
    43    17    20    1
@<TRIPOS>MOLECULE
*****
 39 43 0 0 0
SMALL
GASTEIGER

@<TRIPOS>ATOM
      1 N          63.4663   86.0069   12.8857 N.ar    1  UNL1       -0.3063
      2 C          62.8377   85.1359   11.8387 C.ar    1  UNL1        0.1240
      3 C          62.1799   86.0277   10.8277 C.ar    1  UNL1        0.1156
      4 C          62.4021   87.4498   11.2499 C.ar    1  UNL1        0.0966
      5 C          63.1971   87.4370   12.5218 C.ar    1  UNL1        0.1349
      6 C          63.5731   88.7292   13.1842 C.ar    1  UNL1        0.2819
      7 O          64.3681   88.7163   14.4561 O.2     1  UNL1       -0.2652
      8 N          63.1542   90.0341   12.5748 N.ar    1  UNL1       -0.2400
      9 C          62.3591   90.0470   11.3028 C.ar    1  UNL1        0.3343
     10 O          61.9402   91.3520   10.6934 O.2     1  UNL1       -0.2462
     11 N          61.9831   88.7548   10.6404 N.ar    1  UNL1       -0.2770
     12 C          61.1881   88.7676    9.3685 C.3     1  UNL1        0.1351
     13 N          62.8624   83.6364   11.8081 N.pl3   1  UNL1       -0.2925
     14 C          63.4807   83.0205   10.5881 C.3     1  UNL1        0.0936
     15 C          63.6550   81.5672   10.2601 C.3     1  UNL1        0.0385
     16 C          63.2539   80.3709   11.0713 C.3     1  UNL1        0.0704
     17 N          62.5795   80.3323   12.4106 N.3     1  UNL1       -0.2960
     18 C          62.1397   81.4806   13.2696 C.3     1  UNL1        0.0903
     19 C          62.2656   82.9512   13.0015 C.3     1  UNL1        0.1092
     20 H          63.2172   79.8000   13.0025 H       1  UNL1        0.1233
     21 C          61.4315   85.5766    9.6086 C.1     1  UNL1        0.1047
     22 N          60.6830   85.1253    8.3894 N.1     1  UNL1       -0.1907
     23 C          64.2300   85.5314   14.0859 C.3     1  UNL1        0.1332
     24 C          62.8697   86.3852   17.7150 C.3     1  UNL1        0.0261
     25 C          63.0472   85.6992   16.3930 C.2     1  UNL1       -0.0460
     26 C          62.2191   84.4947   16.0561 C.3     1  UNL1        0.0261
     27 C          64.0526   86.2175   15.4080 C.2     1  UNL1       -0.0102
     28 C          63.5302   91.3263   13.2373 C.3     1  UNL1        0.1791
     29 C          64.9755   91.6678   13.4490 C.ar    1  UNL1        0.1617
     30 N          65.9185   91.6939   12.2828 N.ar    1  UNL1       -0.2330
     31 C          67.3637   92.0354   12.4944 C.ar    1  UNL1        0.0622
     32 C          68.3068   92.0615   11.3283 C.3     1  UNL1        0.0522
     33 C          67.8659   92.3508   13.8723 C.ar    1  UNL1        0.0313
     34 C          69.3111   92.6922   14.0839 C.ar    1  UNL1        0.0027
     35 C          69.8132   93.0076   15.4617 C.ar    1  UNL1        0.0001
     36 C          68.8701   92.9815   16.6279 C.ar    1  UNL1        0.0015
     37 C          67.4249   92.6400   16.4163 C.ar    1  UNL1        0.0192
     38 C          66.9228   92.3246   15.0385 C.ar    1  UNL1        0.0838
     39 N          65.4776   91.9832   14.8268 N.ar    1  UNL1       -0.2287
@<TRIPOS>BOND
     1    24    25    1
     2    25    26    1
     3    25    27    2
     4    27    23    1
     5    23     1    1
     6     1     2   ar
     7     2    13    1
     8    13    14    1
     9    14    15    1
    10    15    16    1
    11    16    17    1
    12    17    18    1
    13    18    19    1
    14     2     3   ar
    15     3    21    1
    16    21    22    3
    17     3     4   ar
    18     4     5   ar
    19     5     6   ar
    20     6     7    2
    21     6     8   ar
    22     8    28    1
    23    28    29    1
    24    29    30   ar
    25    30    31   ar
    26    31    32    1
    27    31    33   ar
    28    33    34   ar
    29    34    35   ar
    30    35    36   ar
    31    36    37   ar
    32    37    38   ar
    33    38    39   ar
    34     8     9   ar
    35     9    10    2
    36     9    11   ar
    37    11    12    1
    38     5     1   ar
    39    39    29   ar
    40    19    13    1
    41    11     4   ar
    42    38    33   ar
    43    17    20    1
@<TRIPOS>MOLECULE
*****
 39 43 0 0 0
SMALL
GASTEIGER

@<TRIPOS>ATOM
      1 N          62.6769   86.2748   11.4371 N.ar    1  UNL1       -0.3063
      2 C          63.0260   85.3883   12.5957 C.ar    1  UNL1        0.1240
      3 C          63.5534   86.2552   13.7003 C.ar    1  UNL1        0.1156
      4 C          63.5302   87.6775   13.2244 C.ar    1  UNL1        0.0966
      5 C          62.9885   87.6896   11.8257 C.ar    1  UNL1        0.1349
      6 C          62.8491   88.9875   11.0867 C.ar    1  UNL1        0.2819
      7 O          62.3074   88.9996    9.6880 O.2     1  UNL1       -0.2652
      8 N          63.2512   90.2732   11.7463 N.ar    1  UNL1       -0.2400
      9 C          63.7929   90.2611   13.1451 C.ar    1  UNL1        0.3343
     10 O          64.1951   91.5468   13.8047 O.2     1  UNL1       -0.2462
     11 N          63.9324   88.9633   13.8842 N.ar    1  UNL1       -0.2770
     12 C          64.4741   88.9512   15.2829 C.3     1  UNL1        0.1351
     13 N          62.8743   83.8966   12.6415 N.pl3   1  UNL1       -0.2925
     14 C          62.2664   83.3425   13.8959 C.3     1  UNL1        0.0936
     15 C          61.9846   81.9114   14.2456 C.3     1  UNL1        0.0385
     16 C          62.2412   80.6807   13.4272 C.3     1  UNL1        0.0704
     17 N          62.8429   80.5774   12.0571 N.3     1  UNL1       -0.2960
     18 C          63.3366   81.6791   11.1669 C.3     1  UNL1        0.0903
     19 C          63.3506   83.1564   11.4270 C.3     1  UNL1        0.1092
     20 H          62.1335   80.0989   11.5019 H       1  UNL1        0.1233
     21 C          64.0217   85.7828   15.0447 C.1     1  UNL1        0.1047
     22 N          64.4900   85.3103   16.3892 N.1     1  UNL1       -0.1907
     23 C          62.1149   85.8254   10.1210 C.3     1  UNL1        0.1332
     24 C          59.0434   86.6818    7.7583 C.3     1  UNL1        0.0261
     25 C          60.3684   86.1571    8.2264 C.2     1  UNL1       -0.0460
     26 C          61.2718   85.4394    7.2679 C.3     1  UNL1        0.0261
     27 C          60.7899   86.3501    9.6529 C.2     1  UNL1       -0.0102
     28 C          63.1118   91.5710   11.0072 C.3     1  UNL1        0.1791
     29 C          64.3342   92.3539   10.6292 C.ar    1  UNL1        0.1617
     30 N          65.6664   91.6698   10.5445 N.ar    1  UNL1       -0.2330
     31 C          66.8888   92.4527   10.1664 C.ar    1  UNL1        0.0622
     32 C          68.2210   91.7686   10.0817 C.3     1  UNL1        0.0522
     33 C          66.7789   93.9196    9.8730 C.ar    1  UNL1        0.0313
     34 C          68.0013   94.7025    9.4949 C.ar    1  UNL1        0.0027
     35 C          67.8914   96.1693    9.2016 C.ar    1  UNL1        0.0001
     36 C          66.5591   96.8534    9.2863 C.ar    1  UNL1        0.0015
     37 C          65.3368   96.0706    9.6644 C.ar    1  UNL1        0.0192
     38 C          65.4467   94.6037    9.9577 C.ar    1  UNL1        0.0838
     39 N          64.2243   93.8208   10.3358 N.ar    1  UNL1       -0.2287
@<TRIPOS>BOND
     1    24    25    1
     2    25    26    1
     3    25    27    2
     4    27    23    1
     5    23     1    1
     6     1     2   ar
     7     2    13    1
     8    13    14    1
     9    14    15    1
    10    15    16    1
    11    16    17    1
    12    17    18    1
    13    18    19    1
    14     2     3   ar
    15     3    21    1
    16    21    22    3
    17     3     4   ar
    18     4     5   ar
    19     5     6   ar
    20     6     7    2
    21     6     8   ar
    22     8    28    1
    23    28    29    1
    24    29    30   ar
    25    30    31   ar
    26    31    32    1
    27    31    33   ar
    28    33    34   ar
    29    34    35   ar
    30    35    36   ar
    31    36    37   ar
    32    37    38   ar
    33    38    39   ar
    34     8     9   ar
    35     9    10    2
    36     9    11   ar
    37    11    12    1
    38     5     1   ar
    39    39    29   ar
    40    19    13    1
    41    11     4   ar
    42    38    33   ar
    43    17    20    1
