@<TRIPOS>MOLECULE
*****
 56 59 0 0 0
SMALL
GASTEIGER

@<TRIPOS>ATOM
      1 C          62.2489   88.1603   10.8511 C.3     1  UNL1        0.0760
      2 C          60.3944   88.7625    9.1340 C.2     1  UNL1        0.2403
      3 O          59.7573   89.6731   10.1414 O.2     1  UNL1       -0.2733
      4 N          61.6402   88.0061    9.4889 N.am    1  UNL1       -0.3043
      5 H          62.0583   87.4084    8.8277 H       1  UNL1        0.1494
      6 C          59.7857   88.6082    7.7718 C.3     1  UNL1        0.1497
      7 N          58.7081   91.3739    5.1374 N.am    1  UNL1       -0.2567
      8 C          57.4616   91.8934    4.4845 C.3     1  UNL1        0.1168
      9 C          58.6237   90.2509    6.1281 C.2     1  UNL1        0.3046
     10 O          57.2926   89.6473    6.4660 O.2     1  UNL1       -0.2526
     11 N          59.8702   89.7313    6.7810 N.am    1  UNL1       -0.2824
     12 H          60.7438   90.1275    6.5592 H       1  UNL1        0.1514
     13 C          60.0391   91.9774    4.7995 C.3     1  UNL1        0.1413
     14 C          60.0756   93.1828    1.1102 C.ar    1  UNL1        0.0875
     15 N          59.3420   92.8875    2.3848 N.ar    1  UNL1       -0.2453
     16 C          60.3391   92.3902    3.3889 C.ar    1  UNL1        0.0858
     17 C          61.6890   92.3781    2.7349 C.ar    1  UNL1        0.0530
     18 S          61.5262   92.8679    1.3266 S.2     1  UNL1       -0.0705
     19 C          58.7679   95.0295   -0.1664 C.3     1  UNL1        0.0069
     20 C          59.4658   93.7018   -0.1582 C.3     1  UNL1        0.0465
     21 C          59.5537   92.8930   -1.4184 C.3     1  UNL1        0.0069
     22 C          59.0925   87.3310    7.4003 C.3     1  UNL1        0.0291
     23 C          59.7098   86.0113    7.7574 C.3     1  UNL1        0.0036
     24 C          61.0613   85.6454    7.2194 C.3     1  UNL1        0.0169
     25 C          61.2077   84.4759    6.2916 C.3     1  UNL1        0.0651
     26 N          62.4702   84.2992    5.5011 N.3     1  UNL1       -0.3211
     27 H          62.5607   85.0619    4.8299 H       1  UNL1        0.1189
     28 H          62.4377   83.4098    5.0027 H       1  UNL1        0.1189
     29 C          62.1579   87.0400   11.8444 C.3     1  UNL1        0.0459
     30 C          62.7497   85.7003   11.5203 C.ar    1  UNL1       -0.0205
     31 C          62.8735   85.2610   10.0914 C.ar    1  UNL1       -0.0042
     32 C          63.4653   83.9214    9.7673 C.ar    1  UNL1       -0.0003
     33 C          63.9334   83.0210   10.8719 C.ar    1  UNL1       -0.0000
     34 C          63.8096   83.4604   12.3009 C.ar    1  UNL1       -0.0003
     35 C          63.2178   84.8000   12.6250 C.ar    1  UNL1       -0.0042
     36 C          62.9485   89.4348   11.2200 C.3     1  UNL1        0.0216
     37 C          62.6547   90.0988   12.5325 C.3     1  UNL1        0.0217
     38 C          63.7471   90.8108   13.2740 C.3     1  UNL1        0.0792
     39 N          64.6759   91.7313   12.5390 N.am    1  UNL1       -0.2720
     40 C          66.0646   91.9648   13.0557 C.2     1  UNL1        0.4019
     41 O          66.5245   91.2780   14.3074 O.2     1  UNL1       -0.2264
     42 H          64.3740   92.1821   11.7175 H       1  UNL1        0.1527
     43 O          66.9934   92.8852   12.3207 O.3     1  UNL1       -0.4291
     44 C          66.8479   93.0715   10.8395 C.3     1  UNL1        0.2447
     45 C          66.8844   94.4502   10.2498 C.ar    1  UNL1        0.0714
     46 C          66.3053   95.6887   10.8668 C.ar    1  UNL1        0.1053
     47 N          66.5694   96.8365    9.9379 N.ar    1  UNL1       -0.2350
     48 C          67.3117   96.3073    8.7467 C.ar    1  UNL1        0.1343
     49 S          67.5064   94.8325    8.9395 S.2     1  UNL1       -0.0652
     50 C          63.9107   90.6025   14.7504 C.3     1  UNL1        0.0460
     51 C          63.7895   89.2248   15.3314 C.ar    1  UNL1       -0.0205
     52 C          63.0344   89.0139   16.6102 C.ar    1  UNL1       -0.0042
     53 C          62.9133   87.6363   17.1911 C.ar    1  UNL1       -0.0003
     54 C          63.5472   86.4696   16.4932 C.ar    1  UNL1       -0.0000
     55 C          64.3023   86.6805   15.2145 C.ar    1  UNL1       -0.0003
     56 C          64.4234   88.0581   14.6335 C.ar    1  UNL1       -0.0042
@<TRIPOS>BOND
     1    19    20    1
     2    20    21    1
     3    20    14    1
     4    14    15   ar
     5    15    16   ar
     6    16    13    1
     7    13     7    1
     8     7     8    1
     9     7     9   am
    10     9    10    2
    11     9    11   am
    12    11     6    1
    13     6    22    1
    14    22    23    1
    15    23    24    1
    16    24    25    1
    17    25    26    1
    18     6     2    1
    19     2     3    2
    20     2     4   am
    21     4     1    1
    22     1    36    1
    23    36    37    1
    24    38    37    1
    25    38    50    1
    26    50    51    1
    27    51    52   ar
    28    52    53   ar
    29    53    54   ar
    30    54    55   ar
    31    55    56   ar
    32    38    39    1
    33    39    40   am
    34    40    41    2
    35    40    43    1
    36    43    44    1
    37    44    45    1
    38    45    46   ar
    39    46    47   ar
    40    47    48   ar
    41    48    49   ar
    42     1    29    1
    43    29    30    1
    44    30    31   ar
    45    31    32   ar
    46    32    33   ar
    47    33    34   ar
    48    34    35   ar
    49    16    17   ar
    50    17    18   ar
    51    18    14   ar
    52    56    51   ar
    53    49    45   ar
    54    35    30   ar
    55    11    12    1
    56    26    27    1
    57    26    28    1
    58     4     5    1
    59    39    42    1
@<TRIPOS>MOLECULE
*****
 56 59 0 0 0
SMALL
GASTEIGER

@<TRIPOS>ATOM
      1 C          61.5459   88.2236   11.8151 C.3     1  UNL1        0.0760
      2 C          63.0953   89.9674   12.9590 C.2     1  UNL1        0.2403
      3 O          63.6151   90.3867   11.6158 O.2     1  UNL1       -0.2733
      4 N          62.0607   88.8858   13.0586 N.am    1  UNL1       -0.3043
      5 H          61.7196   88.6106   13.9402 H       1  UNL1        0.1494
      6 C          63.6102   90.6297   14.2025 C.3     1  UNL1        0.1497
      7 N          66.9410   92.7842   14.3204 N.am    1  UNL1       -0.2567
      8 C          68.3943   92.6082   14.6476 C.3     1  UNL1        0.1168
      9 C          66.0022   91.6190   14.4250 C.2     1  UNL1        0.3046
     10 O          66.5167   90.2777   14.8567 O.2     1  UNL1       -0.2526
     11 N          64.5489   91.7950   14.0979 N.am    1  UNL1       -0.2824
     12 H          64.2112   92.6753   13.8146 H       1  UNL1        0.1514
     13 C          66.4265   94.1254   13.8888 C.3     1  UNL1        0.1413
     14 C          67.1196   94.5755   10.0963 C.ar    1  UNL1        0.0875
     15 N          67.1548   93.7453   11.3451 N.ar    1  UNL1       -0.2453
     16 C          66.5825   94.5652   12.4632 C.ar    1  UNL1        0.0858
     17 C          66.1935   95.9022   11.9054 C.ar    1  UNL1        0.0530
     18 S          66.5254   95.9086   10.4426 S.2     1  UNL1       -0.0705
     19 C          68.4094   92.8971    8.5900 C.3     1  UNL1        0.0069
     20 C          67.5950   94.1478    8.7395 C.3     1  UNL1        0.0465
     21 C          67.2560   94.9708    7.5321 C.3     1  UNL1        0.0069
     22 C          63.1863   90.1267   15.5505 C.3     1  UNL1        0.0291
     23 C          63.5906   88.7539   16.0000 C.3     1  UNL1        0.0036
     24 C          62.9570   88.1460   17.2162 C.3     1  UNL1        0.0169
     25 C          62.8333   86.6556   17.3318 C.3     1  UNL1        0.0651
     26 N          61.5096   85.9920   17.0918 N.3     1  UNL1       -0.3211
     27 H          60.8510   86.2748   17.8175 H       1  UNL1        0.1189
     28 H          61.6278   84.9792   17.1158 H       1  UNL1        0.1189
     29 C          62.3464   87.1393   11.1565 C.3     1  UNL1        0.0459
     30 C          62.7365   85.9174   11.9341 C.ar    1  UNL1       -0.0205
     31 C          63.5034   86.0571   13.2157 C.ar    1  UNL1       -0.0042
     32 C          63.8935   84.8352   13.9933 C.ar    1  UNL1       -0.0003
     33 C          63.5168   83.4736   13.4895 C.ar    1  UNL1       -0.0000
     34 C          62.7500   83.3338   12.2079 C.ar    1  UNL1       -0.0003
     35 C          62.3598   84.5557   11.4302 C.ar    1  UNL1       -0.0042
     36 C          60.2307   88.6455   11.2302 C.3     1  UNL1        0.0216
     37 C          60.1975   89.4924    9.9927 C.3     1  UNL1        0.0217
     38 C          60.0660   88.8466    8.6452 C.3     1  UNL1        0.0792
     39 N          60.2938   89.6534    7.4013 N.am    1  UNL1       -0.2720
     40 C          59.1791   89.8428    6.4155 C.2     1  UNL1        0.4019
     41 O          57.8367   89.2254    6.6736 O.2     1  UNL1       -0.2264
     42 H          61.1749   90.0586    7.2319 H       1  UNL1        0.1527
     43 O          59.4070   90.6497    5.1717 O.3     1  UNL1       -0.4291
     44 C          60.7680   91.2078    4.8786 C.3     1  UNL1        0.2447
     45 C          60.9859   92.0505    3.6570 C.ar    1  UNL1        0.0714
     46 C          62.2760   92.1975    2.9059 C.ar    1  UNL1        0.1053
     47 N          62.0394   93.1320    1.7567 N.ar    1  UNL1       -0.2350
     48 C          60.6031   93.5626    1.7975 C.ar    1  UNL1        0.1343
     49 S          59.9521   92.8942    2.9720 S.2     1  UNL1       -0.0652
     50 C          59.7067   87.3939    8.5415 C.3     1  UNL1        0.0460
     51 C          60.6991   86.4133    7.9905 C.ar    1  UNL1       -0.0205
     52 C          62.1045   86.3941    8.5142 C.ar    1  UNL1       -0.0042
     53 C          63.0968   85.4135    7.9631 C.ar    1  UNL1       -0.0003
     54 C          62.6837   84.4521    6.8884 C.ar    1  UNL1       -0.0000
     55 C          61.2782   84.4713    6.3647 C.ar    1  UNL1       -0.0003
     56 C          60.2859   85.4519    6.9158 C.ar    1  UNL1       -0.0042
@<TRIPOS>BOND
     1    19    20    1
     2    20    21    1
     3    20    14    1
     4    14    15   ar
     5    15    16   ar
     6    16    13    1
     7    13     7    1
     8     7     8    1
     9     7     9   am
    10     9    10    2
    11     9    11   am
    12    11     6    1
    13     6    22    1
    14    22    23    1
    15    23    24    1
    16    24    25    1
    17    25    26    1
    18     6     2    1
    19     2     3    2
    20     2     4   am
    21     4     1    1
    22     1    36    1
    23    36    37    1
    24    38    37    1
    25    38    50    1
    26    50    51    1
    27    51    52   ar
    28    52    53   ar
    29    53    54   ar
    30    54    55   ar
    31    55    56   ar
    32    38    39    1
    33    39    40   am
    34    40    41    2
    35    40    43    1
    36    43    44    1
    37    44    45    1
    38    45    46   ar
    39    46    47   ar
    40    47    48   ar
    41    48    49   ar
    42     1    29    1
    43    29    30    1
    44    30    31   ar
    45    31    32   ar
    46    32    33   ar
    47    33    34   ar
    48    34    35   ar
    49    16    17   ar
    50    17    18   ar
    51    18    14   ar
    52    56    51   ar
    53    49    45   ar
    54    35    30   ar
    55    11    12    1
    56    26    27    1
    57    26    28    1
    58     4     5    1
    59    39    42    1
@<TRIPOS>MOLECULE
*****
 56 59 0 0 0
SMALL
GASTEIGER

@<TRIPOS>ATOM
      1 C          62.2458   88.8523   10.9977 C.3     1  UNL1        0.0760
      2 C          60.3328   88.4748    9.2807 C.2     1  UNL1        0.2403
      3 O          59.3315   88.4688   10.3975 O.2     1  UNL1       -0.2733
      4 N          61.7900   88.6665    9.5807 N.am    1  UNL1       -0.3043
      5 H          62.4471   88.6704    8.8477 H       1  UNL1        0.1494
      6 C          59.8770   88.2890    7.8638 C.3     1  UNL1        0.1497
      7 N          58.8444   91.1414    5.3049 N.am    1  UNL1       -0.2567
      8 C          57.6031   91.7257    4.6986 C.3     1  UNL1        0.1168
      9 C          58.7401   90.0074    6.2811 C.2     1  UNL1        0.3046
     10 O          57.3943   89.4576    6.6510 O.2     1  UNL1       -0.2526
     11 N          59.9814   89.4231    6.8875 N.am    1  UNL1       -0.2824
     12 H          60.8646   89.7839    6.6447 H       1  UNL1        0.1514
     13 C          60.1902   91.6911    4.9351 C.3     1  UNL1        0.1413
     14 C          60.0013   93.4739    1.4924 C.ar    1  UNL1        0.0875
     15 N          59.3540   93.0016    2.7605 N.ar    1  UNL1       -0.2453
     16 C          60.4007   92.3157    3.5876 C.ar    1  UNL1        0.0858
     17 C          61.6948   92.3642    2.8307 C.ar    1  UNL1        0.0530
     18 S          61.4481   93.0799    1.5358 S.2     1  UNL1       -0.0705
     19 C          59.6250   95.6606    0.1408 C.3     1  UNL1        0.0069
     20 C          59.3213   94.2107    0.3768 C.3     1  UNL1        0.0465
     21 C          58.3375   93.4977   -0.5029 C.3     1  UNL1        0.0069
     22 C          59.3167   86.9692    7.4231 C.3     1  UNL1        0.0291
     23 C          60.0558   85.7005    7.7301 C.3     1  UNL1        0.0036
     24 C          61.5457   85.6423    7.5671 C.3     1  UNL1        0.0169
     25 C          62.1555   84.6931    6.5786 C.3     1  UNL1        0.0651
     26 N          61.3061   84.0806    5.5046 N.3     1  UNL1       -0.3211
     27 H          60.6138   83.4634    5.9293 H       1  UNL1        0.1189
     28 H          61.8962   83.5435    4.8693 H       1  UNL1        0.1189
     29 C          62.2048   90.2136   11.6263 C.3     1  UNL1        0.0459
     30 C          63.4309   91.0777   11.6248 C.ar    1  UNL1       -0.0205
     31 C          63.8905   91.7252   10.3523 C.ar    1  UNL1       -0.0042
     32 C          65.1166   92.5893   10.3508 C.ar    1  UNL1       -0.0003
     33 C          65.8831   92.8058   11.6218 C.ar    1  UNL1       -0.0000
     34 C          65.4235   92.1582   12.8944 C.ar    1  UNL1       -0.0003
     35 C          64.1974   91.2942   12.8959 C.ar    1  UNL1       -0.0042
     36 C          62.7427   87.6768   11.7859 C.3     1  UNL1        0.0216
     37 C          62.3263   86.2874   11.4036 C.3     1  UNL1        0.0217
     38 C          62.7618   85.1181   12.2362 C.3     1  UNL1        0.0792
     39 N          62.8111   85.2384   13.7305 N.am    1  UNL1       -0.2720
     40 C          64.0786   84.9206   14.4671 C.2     1  UNL1        0.4019
     41 O          65.2967   84.4825   13.7093 O.2     1  UNL1       -0.2264
     42 H          62.0116   85.5259   14.2279 H       1  UNL1        0.1527
     43 O          64.1279   85.0409   15.9615 O.3     1  UNL1       -0.4291
     44 C          63.3066   86.0855   16.6573 C.3     1  UNL1        0.2447
     45 C          63.4798   87.5332   16.3051 C.ar    1  UNL1        0.0714
     46 C          64.2288   88.0691   15.1211 C.ar    1  UNL1        0.1053
     47 N          64.1463   89.5663   15.1592 N.ar    1  UNL1       -0.2350
     48 C          63.3463   89.9558   16.3668 C.ar    1  UNL1        0.1343
     49 S          62.9344   88.6993   17.0749 S.2     1  UNL1       -0.0652
     50 C          63.1478   83.8285   11.5744 C.3     1  UNL1        0.0460
     51 C          62.7723   82.5202   12.2048 C.ar    1  UNL1       -0.0205
     52 C          63.1038   81.2316   11.5124 C.ar    1  UNL1       -0.0042
     53 C          62.7283   79.9233   12.1428 C.ar    1  UNL1       -0.0003
     54 C          62.0213   79.9037   13.4655 C.ar    1  UNL1       -0.0000
     55 C          61.6898   81.1923   14.1580 C.ar    1  UNL1       -0.0003
     56 C          62.0653   82.5006   13.5276 C.ar    1  UNL1       -0.0042
@<TRIPOS>BOND
     1    19    20    1
     2    20    21    1
     3    20    14    1
     4    14    15   ar
     5    15    16   ar
     6    16    13    1
     7    13     7    1
     8     7     8    1
     9     7     9   am
    10     9    10    2
    11     9    11   am
    12    11     6    1
    13     6    22    1
    14    22    23    1
    15    23    24    1
    16    24    25    1
    17    25    26    1
    18     6     2    1
    19     2     3    2
    20     2     4   am
    21     4     1    1
    22     1    36    1
    23    36    37    1
    24    38    37    1
    25    38    50    1
    26    50    51    1
    27    51    52   ar
    28    52    53   ar
    29    53    54   ar
    30    54    55   ar
    31    55    56   ar
    32    38    39    1
    33    39    40   am
    34    40    41    2
    35    40    43    1
    36    43    44    1
    37    44    45    1
    38    45    46   ar
    39    46    47   ar
    40    47    48   ar
    41    48    49   ar
    42     1    29    1
    43    29    30    1
    44    30    31   ar
    45    31    32   ar
    46    32    33   ar
    47    33    34   ar
    48    34    35   ar
    49    16    17   ar
    50    17    18   ar
    51    18    14   ar
    52    56    51   ar
    53    49    45   ar
    54    35    30   ar
    55    11    12    1
    56    26    27    1
    57    26    28    1
    58     4     5    1
    59    39    42    1
@<TRIPOS>MOLECULE
*****
 56 59 0 0 0
SMALL
GASTEIGER

@<TRIPOS>ATOM
      1 C          62.1968   89.5263   10.6161 C.3     1  UNL1        0.0760
      2 C          61.9839   86.9936   11.1548 C.2     1  UNL1        0.2403
      3 O          60.7988   87.2791   12.0288 O.2     1  UNL1       -0.2733
      4 N          62.6829   88.1172   10.4484 N.am    1  UNL1       -0.3043
      5 H          63.4608   87.9298    9.8748 H       1  UNL1        0.1494
      6 C          62.4700   85.5845   10.9871 C.3     1  UNL1        0.1497
      7 N          62.7284   82.2332   13.0971 N.am    1  UNL1       -0.2567
      8 C          63.1131   80.7967   12.9011 C.3     1  UNL1        0.1168
      9 C          62.7916   83.1906   11.9442 C.2     1  UNL1        0.3046
     10 O          63.2395   82.7115   10.5951 O.2     1  UNL1       -0.2526
     11 N          62.4068   84.6271   12.1402 N.am    1  UNL1       -0.2824
     12 H          62.1128   84.9416   13.0256 H       1  UNL1        0.1514
     13 C          62.2805   82.7124   14.4461 C.3     1  UNL1        0.1413
     14 C          63.2589   85.9558   16.3405 C.ar    1  UNL1        0.0875
     15 N          62.2452   84.9207   15.9518 N.ar    1  UNL1       -0.2453
     16 C          62.9227   83.9185   15.0649 C.ar    1  UNL1        0.0858
     17 C          64.3551   84.3343   14.9053 C.ar    1  UNL1        0.0530
     18 S          64.5629   85.5934   15.6937 S.2     1  UNL1       -0.0705
     19 C          63.1420   88.5311   16.6637 C.3     1  UNL1        0.0069
     20 C          63.0119   87.1446   17.2212 C.3     1  UNL1        0.0465
     21 C          62.6349   86.9470   18.6595 C.3     1  UNL1        0.0069
     22 C          63.0193   85.1328    9.6664 C.3     1  UNL1        0.0291
     23 C          62.3928   85.6114    8.3903 C.3     1  UNL1        0.0036
     24 C          62.5542   84.8137    7.1303 C.3     1  UNL1        0.0169
     25 C          61.3482   84.4351    6.3227 C.3     1  UNL1        0.0651
     26 N          61.4871   84.1479    4.8570 N.3     1  UNL1       -0.3211
     27 H          61.7593   85.0005    4.3678 H       1  UNL1        0.1189
     28 H          60.5956   83.8150    4.4898 H       1  UNL1        0.1189
     29 C          60.8068   89.8958   10.1902 C.3     1  UNL1        0.0459
     30 C          60.1573   89.1771    9.0449 C.ar    1  UNL1       -0.0205
     31 C          59.6541   87.7759    9.2274 C.ar    1  UNL1       -0.0042
     32 C          59.0046   87.0571    8.0821 C.ar    1  UNL1       -0.0003
     33 C          58.8583   87.7396    6.7544 C.ar    1  UNL1       -0.0000
     34 C          59.3615   89.1409    6.5720 C.ar    1  UNL1       -0.0003
     35 C          60.0110   89.8597    7.7172 C.ar    1  UNL1       -0.0042
     36 C          63.1006   90.5659   11.2097 C.3     1  UNL1        0.0216
     37 C          63.5139   90.4673   12.6482 C.3     1  UNL1        0.0217
     38 C          64.6391   91.3141   13.1650 C.3     1  UNL1        0.0792
     39 N          64.6642   92.7857   12.8759 N.am    1  UNL1       -0.2720
     40 C          65.5827   93.3272   11.8207 C.2     1  UNL1        0.4019
     41 O          66.4759   92.3970   11.0547 O.2     1  UNL1       -0.2264
     42 H          64.0779   93.3963   13.3786 H       1  UNL1        0.1527
     43 O          65.6078   94.7988   11.5315 O.3     1  UNL1       -0.4291
     44 C          66.7385   95.3889   10.7421 C.3     1  UNL1        0.2447
     45 C          66.5740   95.6461    9.2735 C.ar    1  UNL1        0.0714
     46 C          67.0177   94.7389    8.1644 C.ar    1  UNL1        0.1053
     47 N          66.6548   95.3878    6.8616 N.ar    1  UNL1       -0.2350
     48 C          65.9867   96.6959    7.1655 C.ar    1  UNL1        0.1343
     49 S          65.9368   96.8555    8.6562 S.2     1  UNL1       -0.0652
     50 C          65.7390   90.6892   13.9710 C.3     1  UNL1        0.0460
     51 C          66.7964   91.5524   14.5931 C.ar    1  UNL1       -0.0205
     52 C          68.1603   91.6314   13.9740 C.ar    1  UNL1       -0.0042
     53 C          69.2175   92.4946   14.5961 C.ar    1  UNL1       -0.0003
     54 C          68.9108   93.2788   15.8375 C.ar    1  UNL1       -0.0000
     55 C          67.5469   93.1999   16.4566 C.ar    1  UNL1       -0.0003
     56 C          66.4897   92.3367   15.8345 C.ar    1  UNL1       -0.0042
@<TRIPOS>BOND
     1    19    20    1
     2    20    21    1
     3    20    14    1
     4    14    15   ar
     5    15    16   ar
     6    16    13    1
     7    13     7    1
     8     7     8    1
     9     7     9   am
    10     9    10    2
    11     9    11   am
    12    11     6    1
    13     6    22    1
    14    22    23    1
    15    23    24    1
    16    24    25    1
    17    25    26    1
    18     6     2    1
    19     2     3    2
    20     2     4   am
    21     4     1    1
    22     1    36    1
    23    36    37    1
    24    38    37    1
    25    38    50    1
    26    50    51    1
    27    51    52   ar
    28    52    53   ar
    29    53    54   ar
    30    54    55   ar
    31    55    56   ar
    32    38    39    1
    33    39    40   am
    34    40    41    2
    35    40    43    1
    36    43    44    1
    37    44    45    1
    38    45    46   ar
    39    46    47   ar
    40    47    48   ar
    41    48    49   ar
    42     1    29    1
    43    29    30    1
    44    30    31   ar
    45    31    32   ar
    46    32    33   ar
    47    33    34   ar
    48    34    35   ar
    49    16    17   ar
    50    17    18   ar
    51    18    14   ar
    52    56    51   ar
    53    49    45   ar
    54    35    30   ar
    55    11    12    1
    56    26    27    1
    57    26    28    1
    58     4     5    1
    59    39    42    1
@<TRIPOS>MOLECULE
*****
 56 59 0 0 0
SMALL
GASTEIGER

@<TRIPOS>ATOM
      1 C          61.3821   88.7296   11.6025 C.3     1  UNL1        0.0760
      2 C          62.3715   86.5884   10.5131 C.2     1  UNL1        0.2403
      3 O          62.7362   87.3785    9.2914 O.2     1  UNL1       -0.2733
      4 N          61.6944   87.2639   11.6687 N.am    1  UNL1       -0.3043
      5 H          61.4551   86.7453   12.4706 H       1  UNL1        0.1494
      6 C          62.6838   85.1228   10.5793 C.3     1  UNL1        0.1497
      7 N          62.7386   82.1919   13.2546 N.am    1  UNL1       -0.2567
      8 C          63.1822   80.7630   13.3622 C.3     1  UNL1        0.1168
      9 C          62.9330   82.9429   11.9708 C.2     1  UNL1        0.3046
     10 O          63.5710   82.2651   10.7946 O.2     1  UNL1       -0.2526
     11 N          62.4894   84.3718   11.8632 N.am    1  UNL1       -0.2824
     12 H          62.0706   84.8167   12.6352 H       1  UNL1        0.1514
     13 C          62.1006   82.8697   14.4308 C.3     1  UNL1        0.1413
     14 C          63.1631   86.0354   16.4095 C.ar    1  UNL1        0.0875
     15 N          62.1307   85.0198   16.0187 N.ar    1  UNL1       -0.2453
     16 C          62.7708   84.0491   15.0712 C.ar    1  UNL1        0.0858
     17 C          64.1989   84.4648   14.8764 C.ar    1  UNL1        0.0530
     18 S          64.4413   85.6924   15.7035 S.2     1  UNL1       -0.0705
     19 C          62.6485   86.9411   18.7897 C.3     1  UNL1        0.0069
     20 C          62.9539   87.1912   17.3426 C.3     1  UNL1        0.0465
     21 C          63.0503   88.5970   16.8285 C.3     1  UNL1        0.0069
     22 C          63.1905   84.4082    9.3618 C.3     1  UNL1        0.0291
     23 C          63.1318   85.0773    8.0206 C.3     1  UNL1        0.0036
     24 C          61.9957   84.7853    7.0858 C.3     1  UNL1        0.0169
     25 C          62.2756   84.3743    5.6706 C.3     1  UNL1        0.0651
     26 N          61.1470   83.9643    4.7715 N.3     1  UNL1       -0.3211
     27 H          60.7305   83.1011    5.1207 H       1  UNL1        0.1189
     28 H          61.5023   83.8127    3.8275 H       1  UNL1        0.1189
     29 C          60.1227   89.1987   10.9362 C.3     1  UNL1        0.0459
     30 C          59.8042   88.7565    9.5387 C.ar    1  UNL1       -0.0205
     31 C          60.0022   89.7005    8.3899 C.ar    1  UNL1       -0.0042
     32 C          59.6837   89.2583    6.9924 C.ar    1  UNL1       -0.0003
     33 C          59.1671   87.8723    6.7436 C.ar    1  UNL1       -0.0000
     34 C          58.9690   86.9283    7.8924 C.ar    1  UNL1       -0.0003
     35 C          59.2875   87.3704    9.2900 C.ar    1  UNL1       -0.0042
     36 C          62.3291   89.7260   12.2026 C.3     1  UNL1        0.0216
     37 C          63.0216   90.7257   11.3244 C.3     1  UNL1        0.0217
     38 C          64.2384   91.4469   11.8238 C.3     1  UNL1        0.0792
     39 N          64.2143   92.1191   13.1645 N.am    1  UNL1       -0.2720
     40 C          64.5663   91.3431   14.3990 C.2     1  UNL1        0.4019
     41 O          64.9422   89.8949   14.2928 O.2     1  UNL1       -0.2264
     42 H          63.9676   93.0696   13.2342 H       1  UNL1        0.1527
     43 O          64.5422   92.0153   15.7397 O.3     1  UNL1       -0.4291
     44 C          65.8287   92.3847   16.4167 C.3     1  UNL1        0.2447
     45 C          67.1023   92.4431   15.6264 C.ar    1  UNL1        0.0714
     46 C          67.2429   92.1652   14.1591 C.ar    1  UNL1        0.1053
     47 N          68.6864   92.3399   13.7904 N.ar    1  UNL1       -0.2350
     48 C          69.4379   92.7257   15.0299 C.ar    1  UNL1        0.1343
     49 S          68.4589   92.7895   16.1646 S.2     1  UNL1       -0.0652
     50 C          65.4792   91.4958   10.9824 C.3     1  UNL1        0.0460
     51 C          66.0461   92.8182   10.5582 C.ar    1  UNL1       -0.0205
     52 C          65.3161   94.0869   10.8857 C.ar    1  UNL1       -0.0042
     53 C          65.8830   95.4093   10.4615 C.ar    1  UNL1       -0.0003
     54 C          67.1800   95.4629    9.7098 C.ar    1  UNL1       -0.0000
     55 C          67.9099   94.1941    9.3822 C.ar    1  UNL1       -0.0003
     56 C          67.3430   92.8718    9.8064 C.ar    1  UNL1       -0.0042
@<TRIPOS>BOND
     1    19    20    1
     2    20    21    1
     3    20    14    1
     4    14    15   ar
     5    15    16   ar
     6    16    13    1
     7    13     7    1
     8     7     8    1
     9     7     9   am
    10     9    10    2
    11     9    11   am
    12    11     6    1
    13     6    22    1
    14    22    23    1
    15    23    24    1
    16    24    25    1
    17    25    26    1
    18     6     2    1
    19     2     3    2
    20     2     4   am
    21     4     1    1
    22     1    36    1
    23    36    37    1
    24    38    37    1
    25    38    50    1
    26    50    51    1
    27    51    52   ar
    28    52    53   ar
    29    53    54   ar
    30    54    55   ar
    31    55    56   ar
    32    38    39    1
    33    39    40   am
    34    40    41    2
    35    40    43    1
    36    43    44    1
    37    44    45    1
    38    45    46   ar
    39    46    47   ar
    40    47    48   ar
    41    48    49   ar
    42     1    29    1
    43    29    30    1
    44    30    31   ar
    45    31    32   ar
    46    32    33   ar
    47    33    34   ar
    48    34    35   ar
    49    16    17   ar
    50    17    18   ar
    51    18    14   ar
    52    56    51   ar
    53    49    45   ar
    54    35    30   ar
    55    11    12    1
    56    26    27    1
    57    26    28    1
    58     4     5    1
    59    39    42    1
@<TRIPOS>MOLECULE
*****
 56 59 0 0 0
SMALL
GASTEIGER

@<TRIPOS>ATOM
      1 C          61.6802   89.2683   11.7773 C.3     1  UNL1        0.0760
      2 C          63.3412   89.5926   13.7486 C.2     1  UNL1        0.2403
      3 O          63.9122   88.2296   13.4918 O.2     1  UNL1       -0.2733
      4 N          62.2252   90.1120   12.8914 N.am    1  UNL1       -0.3043
      5 H          61.8504   91.0066   13.0600 H       1  UNL1        0.1494
      6 C          63.8861   90.4364   14.8627 C.3     1  UNL1        0.1497
      7 N          67.0905   92.7205   14.3477 N.am    1  UNL1       -0.2567
      8 C          68.5832   92.6208   14.4557 C.3     1  UNL1        0.1168
      9 C          66.2347   91.5286   14.6592 C.2     1  UNL1        0.3046
     10 O          66.8717   90.2370   15.0787 O.2     1  UNL1       -0.2526
     11 N          64.7419   91.6283   14.5512 N.am    1  UNL1       -0.2824
     12 H          64.3238   92.4760   14.2759 H       1  UNL1        0.1514
     13 C          66.4534   94.0121   13.9283 C.3     1  UNL1        0.1413
     14 C          67.0775   94.5511   10.1354 C.ar    1  UNL1        0.0875
     15 N          67.1618   93.7025   11.3694 N.ar    1  UNL1       -0.2453
     16 C          66.5730   94.4810   12.5084 C.ar    1  UNL1        0.0858
     17 C          66.1249   95.8107   11.9783 C.ar    1  UNL1        0.0530
     18 S          66.4366   95.8541   10.5117 S.2     1  UNL1       -0.0705
     19 C          68.3785   92.9275    8.5793 C.3     1  UNL1        0.0069
     20 C          67.5509   94.1646    8.7656 C.3     1  UNL1        0.0465
     21 C          67.1968   95.0151    7.5819 C.3     1  UNL1        0.0069
     22 C          63.5753   90.0882   16.2882 C.3     1  UNL1        0.0291
     23 C          62.6434   88.9542   16.5973 C.3     1  UNL1        0.0036
     24 C          63.1945   87.5958   16.9152 C.3     1  UNL1        0.0169
     25 C          62.3331   86.5794   17.6042 C.3     1  UNL1        0.0651
     26 N          61.0854   86.0788   16.9386 N.3     1  UNL1       -0.3211
     27 H          60.4147   86.8427   16.8552 H       1  UNL1        0.1189
     28 H          60.6790   85.3290   17.4980 H       1  UNL1        0.1189
     29 C          60.3079   89.5376   11.2348 C.3     1  UNL1        0.0459
     30 C          59.9331   89.0495    9.8669 C.ar    1  UNL1       -0.0205
     31 C          59.2414   87.7284    9.7054 C.ar    1  UNL1       -0.0042
     32 C          58.8666   87.2402    8.3375 C.ar    1  UNL1       -0.0003
     33 C          59.1835   88.0732    7.1310 C.ar    1  UNL1       -0.0000
     34 C          59.8753   89.3944    7.2924 C.ar    1  UNL1       -0.0003
     35 C          60.2501   89.8825    8.6603 C.ar    1  UNL1       -0.0042
     36 C          62.5075   88.1553   11.2058 C.3     1  UNL1        0.0216
     37 C          62.1594   86.7287   11.5117 C.3     1  UNL1        0.0217
     38 C          62.4905   85.6478   10.5258 C.3     1  UNL1        0.0792
     39 N          62.2708   84.2089   10.8884 N.am    1  UNL1       -0.2720
     40 C          63.4151   83.2402   10.8405 C.2     1  UNL1        0.4019
     41 O          64.7791   83.7104   10.4301 O.2     1  UNL1       -0.2264
     42 H          61.3756   83.9004   11.1578 H       1  UNL1        0.1527
     43 O          63.1954   81.8014   11.2031 O.3     1  UNL1       -0.4291
     44 C          63.3638   81.3519   12.6242 C.3     1  UNL1        0.2447
     45 C          63.2850   82.3502   13.7410 C.ar    1  UNL1        0.0714
     46 C          62.0878   82.6131   14.6056 C.ar    1  UNL1        0.1053
     47 N          62.4524   83.6863   15.5882 N.ar    1  UNL1       -0.2350
     48 C          63.8749   84.0866   15.3308 C.ar    1  UNL1        0.1343
     49 S          64.3894   83.2609   14.1891 S.2     1  UNL1       -0.0652
     50 C          63.0414   86.0057    9.1773 C.3     1  UNL1        0.0460
     51 C          62.4738   85.3707    7.9426 C.ar    1  UNL1       -0.0205
     52 C          60.9877   85.2620    7.7705 C.ar    1  UNL1       -0.0042
     53 C          60.4201   84.6270    6.5358 C.ar    1  UNL1       -0.0003
     54 C          61.3387   84.1007    5.4731 C.ar    1  UNL1       -0.0000
     55 C          62.8248   84.2093    5.6452 C.ar    1  UNL1       -0.0003
     56 C          63.3923   84.8443    6.8799 C.ar    1  UNL1       -0.0042
@<TRIPOS>BOND
     1    19    20    1
     2    20    21    1
     3    20    14    1
     4    14    15   ar
     5    15    16   ar
     6    16    13    1
     7    13     7    1
     8     7     8    1
     9     7     9   am
    10     9    10    2
    11     9    11   am
    12    11     6    1
    13     6    22    1
    14    22    23    1
    15    23    24    1
    16    24    25    1
    17    25    26    1
    18     6     2    1
    19     2     3    2
    20     2     4   am
    21     4     1    1
    22     1    36    1
    23    36    37    1
    24    38    37    1
    25    38    50    1
    26    50    51    1
    27    51    52   ar
    28    52    53   ar
    29    53    54   ar
    30    54    55   ar
    31    55    56   ar
    32    38    39    1
    33    39    40   am
    34    40    41    2
    35    40    43    1
    36    43    44    1
    37    44    45    1
    38    45    46   ar
    39    46    47   ar
    40    47    48   ar
    41    48    49   ar
    42     1    29    1
    43    29    30    1
    44    30    31   ar
    45    31    32   ar
    46    32    33   ar
    47    33    34   ar
    48    34    35   ar
    49    16    17   ar
    50    17    18   ar
    51    18    14   ar
    52    56    51   ar
    53    49    45   ar
    54    35    30   ar
    55    11    12    1
    56    26    27    1
    57    26    28    1
    58     4     5    1
    59    39    42    1
@<TRIPOS>MOLECULE
*****
 56 59 0 0 0
SMALL
GASTEIGER

@<TRIPOS>ATOM
      1 C          63.1816   90.8060   10.9170 C.3     1  UNL1        0.0760
      2 C          61.1938   89.5847    9.7737 C.2     1  UNL1        0.2403
      3 O          60.5887   89.3106   11.1185 O.2     1  UNL1       -0.2733
      4 N          62.4903   90.3324    9.6729 N.am    1  UNL1       -0.3043
      5 H          62.8875   90.5123    8.7903 H       1  UNL1        0.1494
      6 C          60.5025   89.1111    8.5296 C.3     1  UNL1        0.1497
      7 N          58.8600   90.9732    5.4336 N.am    1  UNL1       -0.2567
      8 C          57.5762   90.9675    4.6578 C.3     1  UNL1        0.1168
      9 C          59.0394   90.0393    6.5936 C.2     1  UNL1        0.3046
     10 O          57.9350   89.0997    6.9778 O.2     1  UNL1       -0.2526
     11 N          60.3231   90.0451    7.3695 N.am    1  UNL1       -0.2824
     12 H          61.0479   90.6618    7.1174 H       1  UNL1        0.1514
     13 C          59.9643   91.9128    5.0495 C.3     1  UNL1        0.1413
     14 C          59.6761   93.1361    1.3772 C.ar    1  UNL1        0.0875
     15 N          59.0635   92.8618    2.7186 N.ar    1  UNL1       -0.2453
     16 C          60.1367   92.3217    3.6166 C.ar    1  UNL1        0.0858
     17 C          61.4127   92.2622    2.8302 C.ar    1  UNL1        0.0530
     18 S          61.1280   92.7655    1.4461 S.2     1  UNL1       -0.0705
     19 C          58.9624   95.1616   -0.0851 C.3     1  UNL1        0.0069
     20 C          58.9622   93.6847    0.1774 C.3     1  UNL1        0.0465
     21 C          58.2482   92.7565   -0.7599 C.3     1  UNL1        0.0069
     22 C          59.9906   87.7037    8.4455 C.3     1  UNL1        0.0291
     23 C          60.9341   86.5797    8.1351 C.3     1  UNL1        0.0036
     24 C          62.0884   86.2952    9.0497 C.3     1  UNL1        0.0169
     25 C          61.8478   85.6521   10.3833 C.3     1  UNL1        0.0651
     26 N          61.2396   86.4470   11.5006 N.3     1  UNL1       -0.3211
     27 H          61.8835   87.1865   11.7814 H       1  UNL1        0.1189
     28 H          61.0590   85.8335   12.2952 H       1  UNL1        0.1189
     29 C          63.5848   92.2447   11.0496 C.3     1  UNL1        0.0459
     30 C          64.9815   92.6673   10.7024 C.ar    1  UNL1       -0.0205
     31 C          65.3518   94.1207   10.7208 C.ar    1  UNL1       -0.0042
     32 C          66.7486   94.5433   10.3735 C.ar    1  UNL1       -0.0003
     33 C          67.7750   93.5124   10.0078 C.ar    1  UNL1       -0.0000
     34 C          67.4047   92.0589    9.9894 C.ar    1  UNL1       -0.0003
     35 C          66.0079   91.6363   10.3367 C.ar    1  UNL1       -0.0042
     36 C          63.4698   89.8409   12.0285 C.3     1  UNL1        0.0216
     37 C          62.9554   90.1137   13.4109 C.3     1  UNL1        0.0217
     38 C          63.8123   89.8090   14.6038 C.3     1  UNL1        0.0792
     39 N          64.2097   88.3932   14.8997 N.am    1  UNL1       -0.2720
     40 C          63.4863   87.6172   15.9602 C.2     1  UNL1        0.4019
     41 O          62.3656   88.2570   16.7248 O.2     1  UNL1       -0.2264
     42 H          64.9453   87.9732   14.3979 H       1  UNL1        0.1527
     43 O          63.8837   86.2014   16.2561 O.3     1  UNL1       -0.4291
     44 C          64.5772   85.3824   15.2081 C.3     1  UNL1        0.2447
     45 C          63.8572   84.2440   14.5479 C.ar    1  UNL1        0.0714
     46 C          64.1281   83.7081   13.1733 C.ar    1  UNL1        0.1053
     47 N          63.1783   82.5746   12.9222 N.ar    1  UNL1       -0.2350
     48 C          62.3204   82.4100   14.1415 C.ar    1  UNL1        0.1343
     49 S          62.7400   83.4417   15.1463 S.2     1  UNL1       -0.0652
     50 C          64.2717   90.9200   15.5007 C.3     1  UNL1        0.0460
     51 C          65.5924   91.5866   15.2527 C.ar    1  UNL1       -0.0205
     52 C          66.1717   92.5099   16.2832 C.ar    1  UNL1       -0.0042
     53 C          67.4924   93.1764   16.0352 C.ar    1  UNL1       -0.0003
     54 C          68.2338   92.9197   14.7568 C.ar    1  UNL1       -0.0000
     55 C          67.6545   91.9964   13.7263 C.ar    1  UNL1       -0.0003
     56 C          66.3338   91.3299   13.9743 C.ar    1  UNL1       -0.0042
@<TRIPOS>BOND
     1    19    20    1
     2    20    21    1
     3    20    14    1
     4    14    15   ar
     5    15    16   ar
     6    16    13    1
     7    13     7    1
     8     7     8    1
     9     7     9   am
    10     9    10    2
    11     9    11   am
    12    11     6    1
    13     6    22    1
    14    22    23    1
    15    23    24    1
    16    24    25    1
    17    25    26    1
    18     6     2    1
    19     2     3    2
    20     2     4   am
    21     4     1    1
    22     1    36    1
    23    36    37    1
    24    38    37    1
    25    38    50    1
    26    50    51    1
    27    51    52   ar
    28    52    53   ar
    29    53    54   ar
    30    54    55   ar
    31    55    56   ar
    32    38    39    1
    33    39    40   am
    34    40    41    2
    35    40    43    1
    36    43    44    1
    37    44    45    1
    38    45    46   ar
    39    46    47   ar
    40    47    48   ar
    41    48    49   ar
    42     1    29    1
    43    29    30    1
    44    30    31   ar
    45    31    32   ar
    46    32    33   ar
    47    33    34   ar
    48    34    35   ar
    49    16    17   ar
    50    17    18   ar
    51    18    14   ar
    52    56    51   ar
    53    49    45   ar
    54    35    30   ar
    55    11    12    1
    56    26    27    1
    57    26    28    1
    58     4     5    1
    59    39    42    1
@<TRIPOS>MOLECULE
*****
 56 59 0 0 0
SMALL
GASTEIGER

@<TRIPOS>ATOM
      1 C          63.1235   91.0605   10.8702 C.3     1  UNL1        0.0760
      2 C          61.6429   89.3768    9.5574 C.2     1  UNL1        0.2403
      3 O          62.6409   88.2898    9.8261 O.2     1  UNL1       -0.2733
      4 N          61.8842   90.7623   10.0795 N.am    1  UNL1       -0.3043
      5 H          61.2292   91.4758    9.9031 H       1  UNL1        0.1494
      6 C          60.4037   89.0786    8.7667 C.3     1  UNL1        0.1497
      7 N          58.2480   90.6888    5.8494 N.am    1  UNL1       -0.2567
      8 C          57.0449   90.3617    5.0154 C.3     1  UNL1        0.1168
      9 C          58.7243   89.7202    6.8910 C.2     1  UNL1        0.3046
     10 O          57.9975   88.4245    7.0986 O.2     1  UNL1       -0.2526
     11 N          59.9274   90.0472    7.7250 N.am    1  UNL1       -0.2824
     12 H          60.4044   90.8976    7.5888 H       1  UNL1        0.1514
     13 C          58.9748   91.9844    5.6418 C.3     1  UNL1        0.1413
     14 C          61.9351   92.0055    3.1316 C.ar    1  UNL1        0.0875
     15 N          61.3513   91.6463    4.4658 N.ar    1  UNL1       -0.2453
     16 C          59.9325   92.1320    4.4968 C.ar    1  UNL1        0.0858
     17 C          59.6394   92.7914    3.1817 C.ar    1  UNL1        0.0530
     18 S          60.8771   92.7132    2.3379 S.2     1  UNL1       -0.0705
     19 C          64.0241   92.6442    1.7251 C.3     1  UNL1        0.0069
     20 C          63.3318   91.7090    2.6717 C.3     1  UNL1        0.0465
     21 C          64.0361   90.4773    3.1584 C.3     1  UNL1        0.0069
     22 C          59.6407   87.8117    9.0175 C.3     1  UNL1        0.0291
     23 C          60.3332   86.4855    8.9107 C.3     1  UNL1        0.0036
     24 C          60.7881   85.9825    7.5728 C.3     1  UNL1        0.0169
     25 C          62.1079   85.2813    7.4442 C.3     1  UNL1        0.0651
     26 N          63.0913   85.3204    8.5762 N.3     1  UNL1       -0.3211
     27 H          63.4186   86.2772    8.7094 H       1  UNL1        0.1189
     28 H          63.8844   84.7170    8.3586 H       1  UNL1        0.1189
     29 C          64.3388   91.6077   10.1819 C.3     1  UNL1        0.0459
     30 C          65.0408   92.8092   10.7420 C.ar    1  UNL1       -0.0205
     31 C          65.4216   92.8468   12.1923 C.ar    1  UNL1       -0.0042
     32 C          66.1236   94.0483   12.7524 C.ar    1  UNL1       -0.0003
     33 C          66.4448   95.2120   11.8622 C.ar    1  UNL1       -0.0000
     34 C          66.0639   95.1744   10.4118 C.ar    1  UNL1       -0.0003
     35 C          65.3619   93.9729    9.8517 C.ar    1  UNL1       -0.0042
     36 C          63.1475   90.8116   12.3492 C.3     1  UNL1        0.0216
     37 C          63.4887   89.4489   12.8749 C.3     1  UNL1        0.0217
     38 C          63.9341   89.2838   14.2977 C.3     1  UNL1        0.0792
     39 N          64.2240   87.9151   14.8388 N.am    1  UNL1       -0.2720
     40 C          63.4629   87.4007   16.0246 C.2     1  UNL1        0.4019
     41 O          62.4119   88.2550   16.6693 O.2     1  UNL1       -0.2264
     42 H          64.9138   87.3544   14.4157 H       1  UNL1        0.1527
     43 O          63.7528   86.0321   16.5657 O.3     1  UNL1       -0.4291
     44 C          62.8609   84.8801   16.2088 C.3     1  UNL1        0.2447
     45 C          63.1661   84.0407   15.0037 C.ar    1  UNL1        0.0714
     46 C          62.3390   82.8986   14.4923 C.ar    1  UNL1        0.1053
     47 N          63.0137   82.3481   13.2709 N.ar    1  UNL1       -0.2350
     48 C          64.2577   83.1499   13.0274 C.ar    1  UNL1        0.1343
     49 S          64.3519   84.1960   14.0983 S.2     1  UNL1       -0.0652
     50 C          64.0897   90.4873   15.1794 C.3     1  UNL1        0.0460
     51 C          65.4135   91.1873   15.2662 C.ar    1  UNL1       -0.0205
     52 C          66.5697   90.7108   14.4380 C.ar    1  UNL1       -0.0042
     53 C          67.8934   91.4109   14.5248 C.ar    1  UNL1       -0.0003
     54 C          68.0609   92.5875   15.4400 C.ar    1  UNL1       -0.0000
     55 C          66.9048   93.0641   16.2682 C.ar    1  UNL1       -0.0003
     56 C          65.5810   92.3640   16.1814 C.ar    1  UNL1       -0.0042
@<TRIPOS>BOND
     1    19    20    1
     2    20    21    1
     3    20    14    1
     4    14    15   ar
     5    15    16   ar
     6    16    13    1
     7    13     7    1
     8     7     8    1
     9     7     9   am
    10     9    10    2
    11     9    11   am
    12    11     6    1
    13     6    22    1
    14    22    23    1
    15    23    24    1
    16    24    25    1
    17    25    26    1
    18     6     2    1
    19     2     3    2
    20     2     4   am
    21     4     1    1
    22     1    36    1
    23    36    37    1
    24    38    37    1
    25    38    50    1
    26    50    51    1
    27    51    52   ar
    28    52    53   ar
    29    53    54   ar
    30    54    55   ar
    31    55    56   ar
    32    38    39    1
    33    39    40   am
    34    40    41    2
    35    40    43    1
    36    43    44    1
    37    44    45    1
    38    45    46   ar
    39    46    47   ar
    40    47    48   ar
    41    48    49   ar
    42     1    29    1
    43    29    30    1
    44    30    31   ar
    45    31    32   ar
    46    32    33   ar
    47    33    34   ar
    48    34    35   ar
    49    16    17   ar
    50    17    18   ar
    51    18    14   ar
    52    56    51   ar
    53    49    45   ar
    54    35    30   ar
    55    11    12    1
    56    26    27    1
    57    26    28    1
    58     4     5    1
    59    39    42    1
@<TRIPOS>MOLECULE
*****
 56 59 0 0 0
SMALL
GASTEIGER

@<TRIPOS>ATOM
      1 C          59.4989   94.0275   -0.7467 C.3     1  UNL1        0.0760
      2 C          57.6935   93.4057   -2.5085 C.2     1  UNL1        0.2403
      3 O          58.6048   92.3560   -3.0719 O.2     1  UNL1       -0.2733
      4 N          58.1405   94.2415   -1.3458 N.am    1  UNL1       -0.3043
      5 H          57.5424   94.9305   -0.9760 H       1  UNL1        0.1494
      6 C          56.3351   93.6197   -3.1076 C.3     1  UNL1        0.1497
      7 N          55.6295   92.0681   -6.6916 N.am    1  UNL1       -0.2567
      8 C          55.3067   90.7395   -7.3084 C.3     1  UNL1        0.1168
      9 C          55.8209   92.1796   -5.2081 C.2     1  UNL1        0.3046
     10 O          55.6894   90.9624   -4.3413 O.2     1  UNL1       -0.2526
     11 N          56.1438   93.5083   -4.5912 N.am    1  UNL1       -0.2824
     12 H          56.2301   94.3071   -5.1601 H       1  UNL1        0.1514
     13 C          55.7611   93.2853   -7.5583 C.3     1  UNL1        0.1413
     14 C          59.1191   95.1022   -6.8596 C.ar    1  UNL1        0.0875
     15 N          58.2981   93.8490   -6.9330 N.ar    1  UNL1       -0.2453
     16 C          56.9104   94.2282   -7.3578 C.ar    1  UNL1        0.0858
     17 C          56.8737   95.7158   -7.5470 C.ar    1  UNL1        0.0530
     18 S          58.2388   96.2560   -7.2391 S.2     1  UNL1       -0.0705
     19 C          60.9979   96.1173   -5.3799 C.3     1  UNL1        0.0069
     20 C          60.5663   95.1869   -6.4744 C.3     1  UNL1        0.0465
     21 C          61.5819   94.3411   -7.1836 C.3     1  UNL1        0.0069
     22 C          55.1681   93.9451   -2.2232 C.3     1  UNL1        0.0291
     23 C          54.8247   95.3757   -1.9307 C.3     1  UNL1        0.0036
     24 C          53.4530   95.7323   -1.4396 C.3     1  UNL1        0.0169
     25 C          52.4285   96.2647   -2.3971 C.3     1  UNL1        0.0651
     26 N          51.1798   95.4803   -2.6722 N.3     1  UNL1       -0.3211
     27 H          51.4222   94.6109   -3.1475 H       1  UNL1        0.1189
     28 H          50.5569   96.0293   -3.2645 H       1  UNL1        0.1189
     29 C          60.5706   95.0611   -0.9295 C.3     1  UNL1        0.0459
     30 C          61.7343   94.7830   -1.8341 C.ar    1  UNL1       -0.0205
     31 C          62.7363   95.8619   -2.1204 C.ar    1  UNL1       -0.0042
     32 C          63.9001   95.5837   -3.0250 C.ar    1  UNL1       -0.0003
     33 C          64.0618   94.2268   -3.6433 C.ar    1  UNL1       -0.0000
     34 C          63.0598   93.1478   -3.3570 C.ar    1  UNL1       -0.0003
     35 C          61.8960   93.4259   -2.4524 C.ar    1  UNL1       -0.0042
     36 C          59.7857   92.7800    0.0352 C.3     1  UNL1        0.0216
     37 C          59.4813   92.7283    1.5031 C.3     1  UNL1        0.0217
     38 C          60.5527   93.0481    2.5030 C.3     1  UNL1        0.0792
     39 N          60.8875   92.0637    3.5842 N.am    1  UNL1       -0.2720
     40 C          59.8707   91.7293    4.6351 C.2     1  UNL1        0.4019
     41 O          58.5193   92.3793    4.6049 O.2     1  UNL1       -0.2264
     42 H          61.7745   91.6370    3.6040 H       1  UNL1        0.1527
     43 O          60.2055   90.7449    5.7163 O.3     1  UNL1       -0.4291
     44 C          59.1603   89.7893    6.2104 C.3     1  UNL1        0.2447
     45 C          59.4778   88.8443    7.3312 C.ar    1  UNL1        0.0714
     46 C          59.2496   87.3618    7.3259 C.ar    1  UNL1        0.1053
     47 N          59.7100   86.8171    8.6455 N.ar    1  UNL1       -0.2350
     48 C          60.2227   87.9631    9.4664 C.ar    1  UNL1        0.1343
     49 S          60.0792   89.2159    8.6542 S.2     1  UNL1       -0.0652
     50 C          61.2893   94.3522    2.4218 C.3     1  UNL1        0.0460
     51 C          62.6105   94.4246    1.7153 C.ar    1  UNL1       -0.0205
     52 C          63.3446   95.7299    1.6295 C.ar    1  UNL1       -0.0042
     53 C          64.6658   95.8023    0.9229 C.ar    1  UNL1       -0.0003
     54 C          65.2529   94.5694    0.3022 C.ar    1  UNL1       -0.0000
     55 C          64.5188   93.2641    0.3880 C.ar    1  UNL1       -0.0003
     56 C          63.1976   93.1918    1.0945 C.ar    1  UNL1       -0.0042
@<TRIPOS>BOND
     1    19    20    1
     2    20    21    1
     3    20    14    1
     4    14    15   ar
     5    15    16   ar
     6    16    13    1
     7    13     7    1
     8     7     8    1
     9     7     9   am
    10     9    10    2
    11     9    11   am
    12    11     6    1
    13     6    22    1
    14    22    23    1
    15    23    24    1
    16    24    25    1
    17    25    26    1
    18     6     2    1
    19     2     3    2
    20     2     4   am
    21     4     1    1
    22     1    36    1
    23    36    37    1
    24    38    37    1
    25    38    50    1
    26    50    51    1
    27    51    52   ar
    28    52    53   ar
    29    53    54   ar
    30    54    55   ar
    31    55    56   ar
    32    38    39    1
    33    39    40   am
    34    40    41    2
    35    40    43    1
    36    43    44    1
    37    44    45    1
    38    45    46   ar
    39    46    47   ar
    40    47    48   ar
    41    48    49   ar
    42     1    29    1
    43    29    30    1
    44    30    31   ar
    45    31    32   ar
    46    32    33   ar
    47    33    34   ar
    48    34    35   ar
    49    16    17   ar
    50    17    18   ar
    51    18    14   ar
    52    56    51   ar
    53    49    45   ar
    54    35    30   ar
    55    11    12    1
    56    26    27    1
    57    26    28    1
    58     4     5    1
    59    39    42    1
