@<TRIPOS>MOLECULE
*****
 25 28 0 0 0
SMALL
GASTEIGER

@<TRIPOS>ATOM
      1 C          64.1143   89.3394   14.3547 C.ar    1  UNL1        0.0534
      2 C          63.4223   89.4461   13.0282 C.ar    1  UNL1        0.0045
      3 C          63.7398   90.5858   12.1061 C.ar    1  UNL1        0.0001
      4 C          64.7494   91.6188   12.5105 C.ar    1  UNL1       -0.0002
      5 C          65.0669   92.7585   11.5884 C.ar    1  UNL1       -0.0017
      6 C          66.0765   93.7915   11.9928 C.ar    1  UNL1        0.0071
      7 C          66.7686   93.6849   13.3194 C.ar    1  UNL1       -0.0017
      8 C          66.4511   92.5452   14.2415 C.ar    1  UNL1       -0.0002
      9 C          65.4414   91.5121   13.8370 C.ar    1  UNL1        0.0001
     10 C          65.1239   90.3725   14.7591 C.ar    1  UNL1        0.0045
     11 C          66.3941   94.9312   11.0707 C.3     1  UNL1        0.1432
     12 O          65.5879   95.7378   12.0450 O.3     1  UNL1       -0.3770
     13 C          66.5431   96.2395   10.3523 C.3     1  UNL1        0.0614
     14 C          67.3750   96.0032    9.1267 C.3     1  UNL1        0.1105
     15 N          67.7401   94.5488    9.0876 N.ar    1  UNL1       -0.3101
     16 C          68.4799   93.5039    8.3060 C.ar    1  UNL1        0.1784
     17 N          68.3309   92.1956    9.0244 N.ar    1  UNL1       -0.2226
     18 C          67.4990   92.4320   10.2500 C.ar    1  UNL1        0.1160
     19 C          67.1339   93.8863   10.2891 C.ar    1  UNL1        0.0859
     20 H          65.5572   96.6620   11.7522 H       1  UNL1        0.2112
     21 C          63.8819   85.6629   15.8308 C.3     1  UNL1        0.1109
     22 N          64.1995   86.8026   14.9087 N.am    1  UNL1       -0.2992
     23 C          63.7967   88.1998   15.2768 C.2     1  UNL1        0.2459
     24 O          63.0764   88.4573   16.5671 O.2     1  UNL1       -0.2701
     25 H          64.6723   86.6335   14.0618 H       1  UNL1        0.1498
@<TRIPOS>BOND
     1    21    22    1
     2    22    23   am
     3    23    24    2
     4    23     1    1
     5     1     2   ar
     6     2     3   ar
     7     3     4   ar
     8     4     5   ar
     9     5     6   ar
    10     6    11    1
    11    11    12    1
    12    11    13    1
    13    13    14    1
    14    14    15    1
    15    15    16   ar
    16    16    17   ar
    17    17    18   ar
    18    18    19   ar
    19     6     7   ar
    20     7     8   ar
    21     8     9   ar
    22     9    10   ar
    23    10     1   ar
    24     9     4   ar
    25    19    11    1
    26    19    15   ar
    27    22    25    1
    28    12    20    1
@<TRIPOS>MOLECULE
*****
 25 28 0 0 0
SMALL
GASTEIGER

@<TRIPOS>ATOM
      1 C          65.3859   92.1362   12.9557 C.ar    1  UNL1        0.0534
      2 C          65.5083   92.5780   11.5275 C.ar    1  UNL1        0.0045
      3 C          64.5460   92.0637   10.4982 C.ar    1  UNL1        0.0001
      4 C          63.4613   91.1076   10.8971 C.ar    1  UNL1       -0.0002
      5 C          62.4989   90.5933    9.8678 C.ar    1  UNL1       -0.0017
      6 C          61.4142   89.6372   10.2667 C.ar    1  UNL1        0.0071
      7 C          61.2918   89.1953   11.6950 C.ar    1  UNL1       -0.0017
      8 C          62.2541   89.7096   12.7243 C.ar    1  UNL1       -0.0002
      9 C          63.3389   90.6658   12.3253 C.ar    1  UNL1        0.0001
     10 C          64.3012   91.1801   13.3546 C.ar    1  UNL1        0.0045
     11 C          60.4519   89.1229    9.2375 C.3     1  UNL1        0.1432
     12 O          59.8170   90.4739    9.3846 O.3     1  UNL1       -0.3770
     13 C          59.3569   88.8910    8.2389 C.3     1  UNL1        0.0614
     14 C          59.5162   87.5043    7.6899 C.3     1  UNL1        0.1105
     15 N          60.7097   86.8791    8.3491 N.ar    1  UNL1       -0.3101
     16 C          61.5458   85.6356    8.4172 C.ar    1  UNL1        0.1784
     17 N          62.6409   85.8674    9.4157 N.ar    1  UNL1       -0.2226
     18 C          62.4815   87.2542    9.9647 C.ar    1  UNL1        0.1160
     19 C          61.2880   87.8794    9.3055 C.ar    1  UNL1        0.0859
     20 H          59.0495   90.5364    8.7947 H       1  UNL1        0.2112
     21 C          68.1275   92.2023   15.8244 C.3     1  UNL1        0.1109
     22 N          67.1651   91.6880   14.7951 N.am    1  UNL1       -0.2992
     23 C          66.3483   92.6505   13.9850 C.2     1  UNL1        0.2459
     24 O          66.4937   94.1272   14.2041 O.2     1  UNL1       -0.2701
     25 H          67.0696   90.7188   14.6513 H       1  UNL1        0.1498
@<TRIPOS>BOND
     1    21    22    1
     2    22    23   am
     3    23    24    2
     4    23     1    1
     5     1     2   ar
     6     2     3   ar
     7     3     4   ar
     8     4     5   ar
     9     5     6   ar
    10     6    11    1
    11    11    12    1
    12    11    13    1
    13    13    14    1
    14    14    15    1
    15    15    16   ar
    16    16    17   ar
    17    17    18   ar
    18    18    19   ar
    19     6     7   ar
    20     7     8   ar
    21     8     9   ar
    22     9    10   ar
    23    10     1   ar
    24     9     4   ar
    25    19    11    1
    26    19    15   ar
    27    22    25    1
    28    12    20    1
@<TRIPOS>MOLECULE
*****
 25 28 0 0 0
SMALL
GASTEIGER

@<TRIPOS>ATOM
      1 C          63.8365   90.0142   14.8286 C.ar    1  UNL1        0.0534
      2 C          62.9746   90.1463   13.6081 C.ar    1  UNL1        0.0045
      3 C          63.5145   90.8121   12.3771 C.ar    1  UNL1        0.0001
      4 C          64.9163   91.3457   12.3667 C.ar    1  UNL1       -0.0002
      5 C          65.4563   92.0114   11.1357 C.ar    1  UNL1       -0.0017
      6 C          66.8581   92.5451   11.1253 C.ar    1  UNL1        0.0071
      7 C          67.7200   92.4129   12.3458 C.ar    1  UNL1       -0.0017
      8 C          67.1801   91.7472   13.5768 C.ar    1  UNL1       -0.0002
      9 C          65.7782   91.2135   13.5872 C.ar    1  UNL1        0.0001
     10 C          65.2383   90.5478   14.8181 C.ar    1  UNL1        0.0045
     11 C          67.3980   93.2108    9.8943 C.3     1  UNL1        0.1432
     12 O          67.8294   91.8228    9.5239 O.3     1  UNL1       -0.3770
     13 C          68.0281   93.5864    8.5860 C.3     1  UNL1        0.0614
     14 C          67.8732   95.0674    8.4051 C.3     1  UNL1        0.1105
     15 N          67.1474   95.6071    9.6017 N.ar    1  UNL1       -0.3101
     16 C          66.6031   96.8560   10.2295 C.ar    1  UNL1        0.1784
     17 N          65.9730   96.4804   11.5378 N.ar    1  UNL1       -0.2226
     18 C          66.1279   94.9994   11.7187 C.ar    1  UNL1        0.1160
     19 C          66.8537   94.4597   10.5221 C.ar    1  UNL1        0.0859
     20 H          68.2810   91.8428    8.6657 H       1  UNL1        0.2112
     21 C          62.7534   87.1863   17.3937 C.3     1  UNL1        0.1109
     22 N          63.2933   87.8520   16.1627 N.am    1  UNL1       -0.2992
     23 C          63.2965   89.3484   16.0595 C.2     1  UNL1        0.2459
     24 O          62.7598   90.1791   17.1873 O.2     1  UNL1       -0.2701
     25 H          63.6456   87.3068   15.4225 H       1  UNL1        0.1498
@<TRIPOS>BOND
     1    21    22    1
     2    22    23   am
     3    23    24    2
     4    23     1    1
     5     1     2   ar
     6     2     3   ar
     7     3     4   ar
     8     4     5   ar
     9     5     6   ar
    10     6    11    1
    11    11    12    1
    12    11    13    1
    13    13    14    1
    14    14    15    1
    15    15    16   ar
    16    16    17   ar
    17    17    18   ar
    18    18    19   ar
    19     6     7   ar
    20     7     8   ar
    21     8     9   ar
    22     9    10   ar
    23    10     1   ar
    24     9     4   ar
    25    19    11    1
    26    19    15   ar
    27    22    25    1
    28    12    20    1
@<TRIPOS>MOLECULE
*****
 25 28 0 0 0
SMALL
GASTEIGER

@<TRIPOS>ATOM
      1 C          64.1385   89.2530   13.5899 C.ar    1  UNL1        0.0534
      2 C          63.2837   88.8812   12.4147 C.ar    1  UNL1        0.0045
      3 C          62.8416   87.4600   12.2287 C.ar    1  UNL1        0.0001
      4 C          63.2543   86.4106   13.2177 C.ar    1  UNL1       -0.0002
      5 C          62.8122   84.9893   13.0317 C.ar    1  UNL1       -0.0017
      6 C          63.2249   83.9399   14.0208 C.ar    1  UNL1        0.0071
      7 C          64.0797   84.3117   15.1960 C.ar    1  UNL1       -0.0017
      8 C          64.5218   85.7329   15.3821 C.ar    1  UNL1       -0.0002
      9 C          64.1091   86.7824   14.3929 C.ar    1  UNL1        0.0001
     10 C          64.5512   88.2036   14.5790 C.ar    1  UNL1        0.0045
     11 C          62.7828   82.5187   13.8347 C.3     1  UNL1        0.1432
     12 O          62.2381   82.6717   15.2238 O.3     1  UNL1       -0.3770
     13 C          62.2268   81.1294   13.9390 C.3     1  UNL1        0.0614
     14 C          62.5203   80.4149   12.6532 C.3     1  UNL1        0.1105
     15 N          63.2577   81.3626   11.7542 N.ar    1  UNL1       -0.3101
     16 C          63.8948   81.5066   10.4039 C.ar    1  UNL1        0.1784
     17 N          64.4508   82.8959   10.2995 N.ar    1  UNL1       -0.2226
     18 C          64.1573   83.6104   11.5854 C.ar    1  UNL1        0.1160
     19 C          63.4199   82.6627   12.4844 C.ar    1  UNL1        0.0859
     20 H          61.8147   81.8432   15.4982 H       1  UNL1        0.2112
     21 C          66.1488   92.4139   14.9003 C.3     1  UNL1        0.1109
     22 N          65.7067   90.9927   14.7143 N.am    1  UNL1       -0.2992
     23 C          64.5806   90.6743   13.7760 C.2     1  UNL1        0.2459
     24 O          63.8966   91.7771   13.0238 O.2     1  UNL1       -0.2701
     25 H          66.1557   90.2689   15.2080 H       1  UNL1        0.1498
@<TRIPOS>BOND
     1    21    22    1
     2    22    23   am
     3    23    24    2
     4    23     1    1
     5     1     2   ar
     6     2     3   ar
     7     3     4   ar
     8     4     5   ar
     9     5     6   ar
    10     6    11    1
    11    11    12    1
    12    11    13    1
    13    13    14    1
    14    14    15    1
    15    15    16   ar
    16    16    17   ar
    17    17    18   ar
    18    18    19   ar
    19     6     7   ar
    20     7     8   ar
    21     8     9   ar
    22     9    10   ar
    23    10     1   ar
    24     9     4   ar
    25    19    11    1
    26    19    15   ar
    27    22    25    1
    28    12    20    1
@<TRIPOS>MOLECULE
*****
 25 28 0 0 0
SMALL
GASTEIGER

@<TRIPOS>ATOM
      1 C          65.4663   91.7767   14.5781 C.ar    1  UNL1        0.0534
      2 C          64.4984   90.8848   15.2975 C.ar    1  UNL1        0.0045
      3 C          63.3993   90.2033   14.5376 C.ar    1  UNL1        0.0001
      4 C          63.2680   90.4137   13.0583 C.ar    1  UNL1       -0.0002
      5 C          62.1689   89.7322   12.2984 C.ar    1  UNL1       -0.0017
      6 C          62.0376   89.9427   10.8191 C.ar    1  UNL1        0.0071
      7 C          63.0055   90.8347   10.0996 C.ar    1  UNL1       -0.0017
      8 C          64.1046   91.5162   10.8595 C.ar    1  UNL1       -0.0002
      9 C          64.2359   91.3057   12.3389 C.ar    1  UNL1        0.0001
     10 C          65.3350   91.9872   13.0988 C.ar    1  UNL1        0.0045
     11 C          60.9384   89.2611   10.0592 C.3     1  UNL1        0.1432
     12 O          60.5082   90.6611    9.7355 O.3     1  UNL1       -0.3770
     13 C          59.7494   88.8723    9.2317 C.3     1  UNL1        0.0614
     14 C          59.6746   87.3744    9.2028 C.3     1  UNL1        0.1105
     15 N          60.8174   86.8376   10.0125 N.ar    1  UNL1       -0.3101
     16 C          61.4775   85.5800   10.4951 C.ar    1  UNL1        0.1784
     17 N          62.6666   85.9688   11.3227 N.ar    1  UNL1       -0.2226
     18 C          62.7414   87.4667   11.3515 C.ar    1  UNL1        0.1160
     19 C          61.5985   88.0036   10.5418 C.ar    1  UNL1        0.0859
     20 H          59.7140   90.6348    9.1792 H       1  UNL1        0.2112
     21 C          68.9627   93.4566   15.4165 C.3     1  UNL1        0.1109
     22 N          67.8636   92.7751   14.6566 N.am    1  UNL1       -0.2992
     23 C          66.5654   92.4583   15.3380 C.2     1  UNL1        0.2459
     24 O          66.3664   92.8230   16.7793 O.2     1  UNL1       -0.2701
     25 H          67.9943   92.5357   13.7106 H       1  UNL1        0.1498
@<TRIPOS>BOND
     1    21    22    1
     2    22    23   am
     3    23    24    2
     4    23     1    1
     5     1     2   ar
     6     2     3   ar
     7     3     4   ar
     8     4     5   ar
     9     5     6   ar
    10     6    11    1
    11    11    12    1
    12    11    13    1
    13    13    14    1
    14    14    15    1
    15    15    16   ar
    16    16    17   ar
    17    17    18   ar
    18    18    19   ar
    19     6     7   ar
    20     7     8   ar
    21     8     9   ar
    22     9    10   ar
    23    10     1   ar
    24     9     4   ar
    25    19    11    1
    26    19    15   ar
    27    22    25    1
    28    12    20    1
@<TRIPOS>MOLECULE
*****
 25 28 0 0 0
SMALL
GASTEIGER

@<TRIPOS>ATOM
      1 C          66.2244   92.8353   11.4372 C.ar    1  UNL1        0.0534
      2 C          67.1452   92.7583   12.6188 C.ar    1  UNL1        0.0045
      3 C          66.7536   91.9554   13.8238 C.ar    1  UNL1        0.0001
      4 C          65.4412   91.2295   13.8472 C.ar    1  UNL1       -0.0002
      5 C          65.0496   90.4265   15.0522 C.ar    1  UNL1       -0.0017
      6 C          63.7372   89.7006   15.0756 C.ar    1  UNL1        0.0071
      7 C          62.8163   89.7776   13.8940 C.ar    1  UNL1       -0.0017
      8 C          63.2079   90.5806   12.6891 C.ar    1  UNL1       -0.0002
      9 C          64.5204   91.3065   12.6657 C.ar    1  UNL1        0.0001
     10 C          64.9119   92.1094   11.4607 C.ar    1  UNL1        0.0045
     11 C          63.3457   88.8977   16.2806 C.3     1  UNL1        0.1432
     12 O          63.0470   90.2389   16.8821 O.3     1  UNL1       -0.3770
     13 C          62.8917   88.3751   17.6113 C.3     1  UNL1        0.0614
     14 C          62.9916   86.8788   17.5803 C.3     1  UNL1        0.1105
     15 N          63.5074   86.4765   16.2304 N.ar    1  UNL1       -0.3101
     16 C          63.8879   85.3031   15.3770 C.ar    1  UNL1        0.1784
     17 N          64.3419   85.8256   14.0463 N.ar    1  UNL1       -0.2226
     18 C          64.2420   87.3220   14.0773 C.ar    1  UNL1        0.1160
     19 C          63.7262   87.7243   15.4272 C.ar    1  UNL1        0.0859
     20 H          62.7235   90.1217   17.7890 H       1  UNL1        0.2112
     21 C          66.4041   95.7956    8.8001 C.3     1  UNL1        0.1109
     22 N          66.0126   94.9926   10.0050 N.am    1  UNL1       -0.2992
     23 C          66.6159   93.6383   10.2323 C.2     1  UNL1        0.2459
     24 O          67.6108   93.0869    9.2545 O.2     1  UNL1       -0.2701
     25 H          65.3596   95.3545   10.6468 H       1  UNL1        0.1498
@<TRIPOS>BOND
     1    21    22    1
     2    22    23   am
     3    23    24    2
     4    23     1    1
     5     1     2   ar
     6     2     3   ar
     7     3     4   ar
     8     4     5   ar
     9     5     6   ar
    10     6    11    1
    11    11    12    1
    12    11    13    1
    13    13    14    1
    14    14    15    1
    15    15    16   ar
    16    16    17   ar
    17    17    18   ar
    18    18    19   ar
    19     6     7   ar
    20     7     8   ar
    21     8     9   ar
    22     9    10   ar
    23    10     1   ar
    24     9     4   ar
    25    19    11    1
    26    19    15   ar
    27    22    25    1
    28    12    20    1
@<TRIPOS>MOLECULE
*****
 25 28 0 0 0
SMALL
GASTEIGER

@<TRIPOS>ATOM
      1 C          62.1311   88.9575   10.4487 C.ar    1  UNL1        0.0534
      2 C          62.3413   88.0628   11.6342 C.ar    1  UNL1        0.0045
      3 C          63.1903   88.5248   12.7813 C.ar    1  UNL1        0.0001
      4 C          63.8290   89.8814   12.7429 C.ar    1  UNL1       -0.0002
      5 C          64.6779   90.3434   13.8901 C.ar    1  UNL1       -0.0017
      6 C          65.3167   91.7001   13.8517 C.ar    1  UNL1        0.0071
      7 C          65.1065   92.5948   12.6662 C.ar    1  UNL1       -0.0017
      8 C          64.2575   92.1328   11.5191 C.ar    1  UNL1       -0.0002
      9 C          63.6188   90.7761   11.5575 C.ar    1  UNL1        0.0001
     10 C          62.7698   90.3141   10.4104 C.ar    1  UNL1        0.0045
     11 C          66.1656   92.1621   14.9988 C.3     1  UNL1        0.1432
     12 O          64.8564   92.2568   15.7245 O.3     1  UNL1       -0.3770
     13 C          66.7409   92.6439   16.2976 C.3     1  UNL1        0.0614
     14 C          68.2282   92.7503   16.1348 C.3     1  UNL1        0.1105
     15 N          68.5722   92.3342   14.7353 N.ar    1  UNL1       -0.3101
     16 C          69.7040   92.1428   13.7697 C.ar    1  UNL1        0.1784
     17 N          69.1288   91.6610   12.4708 N.ar    1  UNL1       -0.2226
     18 C          67.6414   91.5546   12.6337 C.ar    1  UNL1        0.1160
     19 C          67.2974   91.9707   14.0332 C.ar    1  UNL1        0.0859
     20 H          65.0107   92.5666   16.6307 H       1  UNL1        0.2112
     21 C          59.5385   89.0056    7.4444 C.3     1  UNL1        0.1109
     22 N          60.3874   89.4676    8.5915 N.am    1  UNL1       -0.2992
     23 C          61.2822   88.4955    9.3016 C.2     1  UNL1        0.2459
     24 O          61.3280   87.0613    8.8646 O.2     1  UNL1       -0.2701
     25 H          60.3573   90.4089    8.8784 H       1  UNL1        0.1498
@<TRIPOS>BOND
     1    21    22    1
     2    22    23   am
     3    23    24    2
     4    23     1    1
     5     1     2   ar
     6     2     3   ar
     7     3     4   ar
     8     4     5   ar
     9     5     6   ar
    10     6    11    1
    11    11    12    1
    12    11    13    1
    13    13    14    1
    14    14    15    1
    15    15    16   ar
    16    16    17   ar
    17    17    18   ar
    18    18    19   ar
    19     6     7   ar
    20     7     8   ar
    21     8     9   ar
    22     9    10   ar
    23    10     1   ar
    24     9     4   ar
    25    19    11    1
    26    19    15   ar
    27    22    25    1
    28    12    20    1
@<TRIPOS>MOLECULE
*****
 25 28 0 0 0
SMALL
GASTEIGER

@<TRIPOS>ATOM
      1 C          63.9938   89.1297   14.3517 C.ar    1  UNL1        0.0534
      2 C          63.2264   89.1804   13.0639 C.ar    1  UNL1        0.0045
      3 C          63.0010   87.9246   12.2751 C.ar    1  UNL1        0.0001
      4 C          63.5431   86.6181   12.7741 C.ar    1  UNL1       -0.0002
      5 C          63.3178   85.3623   11.9853 C.ar    1  UNL1       -0.0017
      6 C          63.8599   84.0558   12.4842 C.ar    1  UNL1        0.0071
      7 C          64.6275   84.0050   13.7720 C.ar    1  UNL1       -0.0017
      8 C          64.8528   85.2608   14.5608 C.ar    1  UNL1       -0.0002
      9 C          64.3106   86.5674   14.0618 C.ar    1  UNL1        0.0001
     10 C          64.5360   87.8232   14.8506 C.ar    1  UNL1        0.0045
     11 C          63.6346   82.8000   11.6954 C.3     1  UNL1        0.1432
     12 O          64.4835   83.4826   10.6643 O.3     1  UNL1       -0.3770
     13 C          63.5867   81.6869   10.6911 C.3     1  UNL1        0.0614
     14 C          62.7553   80.5789   11.2664 C.3     1  UNL1        0.1105
     15 N          62.2893   81.0072   12.6263 N.ar    1  UNL1       -0.3101
     16 C          61.4874   80.5871   13.8224 C.ar    1  UNL1        0.1784
     17 N          61.5353   81.7001   14.8268 N.ar    1  UNL1       -0.2226
     18 C          62.3667   82.8082   14.2514 C.ar    1  UNL1        0.1160
     19 C          62.8327   82.3799   12.8915 C.ar    1  UNL1        0.0859
     20 H          64.5828   82.9036    9.8924 H       1  UNL1        0.2112
     21 C          65.6768   92.4635   15.6944 C.3     1  UNL1        0.1109
     22 N          65.4515   91.2077   14.9056 N.am    1  UNL1       -0.2992
     23 C          64.2192   90.3855   15.1405 C.2     1  UNL1        0.2459
     24 O          63.2122   90.8190   16.1641 O.2     1  UNL1       -0.2701
     25 H          66.1124   90.9232   14.2337 H       1  UNL1        0.1498
@<TRIPOS>BOND
     1    21    22    1
     2    22    23   am
     3    23    24    2
     4    23     1    1
     5     1     2   ar
     6     2     3   ar
     7     3     4   ar
     8     4     5   ar
     9     5     6   ar
    10     6    11    1
    11    11    12    1
    12    11    13    1
    13    13    14    1
    14    14    15    1
    15    15    16   ar
    16    16    17   ar
    17    17    18   ar
    18    18    19   ar
    19     6     7   ar
    20     7     8   ar
    21     8     9   ar
    22     9    10   ar
    23    10     1   ar
    24     9     4   ar
    25    19    11    1
    26    19    15   ar
    27    22    25    1
    28    12    20    1
@<TRIPOS>MOLECULE
*****
 25 28 0 0 0
SMALL
GASTEIGER

@<TRIPOS>ATOM
      1 C          61.7078   86.5455    9.2547 C.ar    1  UNL1        0.0534
      2 C          62.3066   85.7125   10.3489 C.ar    1  UNL1        0.0045
      3 C          62.8538   86.3723   11.5799 C.ar    1  UNL1        0.0001
      4 C          62.8022   87.8652   11.7165 C.ar    1  UNL1       -0.0002
      5 C          63.3494   88.5250   12.9475 C.ar    1  UNL1       -0.0017
      6 C          63.2978   90.0178   13.0842 C.ar    1  UNL1        0.0071
      7 C          62.6990   90.8509   11.9899 C.ar    1  UNL1       -0.0017
      8 C          62.1518   90.1911   10.7589 C.ar    1  UNL1       -0.0002
      9 C          62.2034   88.6982   10.6223 C.ar    1  UNL1        0.0001
     10 C          61.6562   88.0384    9.3913 C.ar    1  UNL1        0.0045
     11 C          63.8450   90.6776   14.3151 C.3     1  UNL1        0.1432
     12 O          62.8318   89.8319   15.0278 O.3     1  UNL1       -0.3770
     13 C          64.1804   91.1606   15.6950 C.3     1  UNL1        0.0614
     14 C          65.2865   92.1670   15.5778 C.3     1  UNL1        0.1105
     15 N          65.6347   92.3059   14.1254 N.ar    1  UNL1       -0.3101
     16 C          66.5336   93.0138   13.1554 C.ar    1  UNL1        0.1784
     17 N          66.1983   92.5308   11.7754 N.ar    1  UNL1       -0.2226
     18 C          65.0921   91.5244   11.8927 C.ar    1  UNL1        0.1160
     19 C          64.7439   91.3855   13.3450 C.ar    1  UNL1        0.0859
     20 H          62.8839   89.9998   15.9817 H       1  UNL1        0.2112
     21 C          61.5049   84.3732    5.9396 C.3     1  UNL1        0.1109
     22 N          62.0521   85.0330    7.1705 N.am    1  UNL1       -0.2992
     23 C          61.1606   85.8857    8.0237 C.2     1  UNL1        0.2459
     24 O          59.7218   86.0786    7.6460 O.2     1  UNL1       -0.2701
     25 H          62.9965   84.9064    7.4184 H       1  UNL1        0.1498
@<TRIPOS>BOND
     1    21    22    1
     2    22    23   am
     3    23    24    2
     4    23     1    1
     5     1     2   ar
     6     2     3   ar
     7     3     4   ar
     8     4     5   ar
     9     5     6   ar
    10     6    11    1
    11    11    12    1
    12    11    13    1
    13    13    14    1
    14    14    15    1
    15    15    16   ar
    16    16    17   ar
    17    17    18   ar
    18    18    19   ar
    19     6     7   ar
    20     7     8   ar
    21     8     9   ar
    22     9    10   ar
    23    10     1   ar
    24     9     4   ar
    25    19    11    1
    26    19    15   ar
    27    22    25    1
    28    12    20    1
