@<TRIPOS>MOLECULE
*****
 33 37 0 0 0
SMALL
GASTEIGER

@<TRIPOS>ATOM
      1 C          62.7905   86.8187   11.9631 C.2     1  UNL1        0.2506
      2 O          63.5771   87.4609   13.0670 O.2     1  UNL1       -0.2699
      3 N          61.8174   87.6333   11.1635 N.am    1  UNL1       -0.2723
      4 C          61.0308   86.9911   10.0595 C.3     1  UNL1        0.1257
      5 C          60.0577   87.8057    9.2599 C.3     1  UNL1        0.1637
      6 O          59.8712   89.2627    9.5642 O.3     1  UNL1       -0.3502
      7 C          60.6578   89.9049   10.6682 C.3     1  UNL1        0.1622
      8 C          61.6310   89.0903   11.4678 C.3     1  UNL1        0.1096
      9 C          63.3500   82.4479   11.0501 C.ar    1  UNL1        0.1403
     10 C          63.2120   83.4364    9.9303 C.ar    1  UNL1        0.0371
     11 C          63.0255   84.8933   10.2347 C.ar    1  UNL1        0.0092
     12 C          62.9770   85.3618   11.6588 C.ar    1  UNL1        0.0731
     13 C          63.1150   84.3733   12.7785 C.ar    1  UNL1        0.1102
     14 C          63.3015   82.9164   12.4742 C.ar    1  UNL1        0.0579
     15 N          63.0665   84.8418   14.2027 N.ar    1  UNL1       -0.1476
     16 N          64.2096   85.4275   14.9776 N.ar    1  UNL1       -0.1447
     17 C          63.7160   85.7545   16.3558 C.ar    1  UNL1        0.1446
     18 C          62.2679   85.3709   16.4327 C.ar    1  UNL1        0.1446
     19 N          61.8665   84.8068   15.1020 N.ar    1  UNL1       -0.1447
     20 C          62.7938   79.9579   11.5401 C.3     1  UNL1        0.2525
     21 O          63.5364   80.9910   10.7458 O.3     1  UNL1       -0.4714
     22 C          62.4175   89.7325   12.5718 C.3     1  UNL1        0.0488
     23 C          63.5240   90.6911   12.2448 C.ar    1  UNL1       -0.0189
     24 C          63.6159   91.2907   10.8730 C.ar    1  UNL1       -0.0041
     25 C          64.7223   92.2493   10.5460 C.ar    1  UNL1        0.0013
     26 C          65.7369   92.6082   11.5908 C.ar    1  UNL1        0.0209
     27 C          65.6450   92.0086   12.9626 C.ar    1  UNL1        0.1026
     28 C          64.5386   91.0500   13.2896 C.ar    1  UNL1        0.0167
     29 N          66.6597   92.3675   14.0076 N.ar    1  UNL1       -0.1478
     30 N          66.3624   92.8256   15.4046 N.ar    1  UNL1       -0.1447
     31 C          67.6687   93.0725   16.0993 C.ar    1  UNL1        0.1446
     32 C          68.7734   92.7670   15.1316 C.ar    1  UNL1        0.1446
     33 N          68.1497   92.3312   13.8389 N.ar    1  UNL1       -0.1447
@<TRIPOS>BOND
     1    20    21    1
     2    21     9    1
     3     9    10   ar
     4    10    11   ar
     5    11    12   ar
     6    12     1    1
     7     1     2    2
     8     1     3   am
     9     3     4    1
    10     4     5    1
    11     5     6    1
    12     6     7    1
    13     7     8    1
    14     8    22    1
    15    22    23    1
    16    23    24   ar
    17    24    25   ar
    18    25    26   ar
    19    26    27   ar
    20    27    29    1
    21    29    30   ar
    22    30    31   ar
    23    31    32   ar
    24    32    33   ar
    25    27    28   ar
    26    12    13   ar
    27    13    15    1
    28    15    16   ar
    29    16    17   ar
    30    17    18   ar
    31    18    19   ar
    32    13    14   ar
    33    14     9   ar
    34     8     3    1
    35    28    23   ar
    36    19    15   ar
    37    33    29   ar
@<TRIPOS>MOLECULE
*****
 33 37 0 0 0
SMALL
GASTEIGER

@<TRIPOS>ATOM
      1 C          63.1436   87.1064   12.7306 C.2     1  UNL1        0.2506
      2 O          63.7295   87.5833   14.0264 O.2     1  UNL1       -0.2699
      3 N          62.5880   88.0957   11.7496 N.am    1  UNL1       -0.2723
      4 C          62.0020   87.6188   10.4537 C.3     1  UNL1        0.1257
      5 C          61.4464   88.6082    9.4727 C.3     1  UNL1        0.1637
      6 O          61.4768   90.0745    9.7875 O.3     1  UNL1       -0.3502
      7 C          62.0627   90.5514   11.0833 C.3     1  UNL1        0.1622
      8 C          62.6184   89.5620   12.0644 C.3     1  UNL1        0.1096
      9 C          63.0526   82.7075   11.7861 C.ar    1  UNL1        0.1403
     10 C          63.1352   83.7117   10.6749 C.ar    1  UNL1        0.0371
     11 C          63.1656   85.1779   10.9897 C.ar    1  UNL1        0.0092
     12 C          63.1133   85.6401   12.4157 C.ar    1  UNL1        0.0731
     13 C          63.0306   84.6360   13.5270 C.ar    1  UNL1        0.1102
     14 C          63.0003   83.1697   13.2121 C.ar    1  UNL1        0.0579
     15 N          62.9783   85.0981   14.9531 N.ar    1  UNL1       -0.1476
     16 N          64.1546   85.4952   15.7949 N.ar    1  UNL1       -0.1447
     17 C          63.6439   85.8868   17.1498 C.ar    1  UNL1        0.1446
     18 C          62.1519   85.7317   17.1454 C.ar    1  UNL1        0.1446
     19 N          61.7406   85.2443   15.7877 N.ar    1  UNL1       -0.1447
     20 C          62.6662   80.2517   12.5408 C.3     1  UNL1        0.2525
     21 O          63.0223   81.2413   11.4713 O.3     1  UNL1       -0.4714
     22 C          63.2043   90.0389   13.3602 C.3     1  UNL1        0.0488
     23 C          64.4942   90.8045   13.3634 C.ar    1  UNL1       -0.0189
     24 C          65.4599   90.6423   14.4996 C.ar    1  UNL1       -0.0041
     25 C          66.7498   91.4079   14.5027 C.ar    1  UNL1        0.0013
     26 C          67.0740   92.3357   13.3697 C.ar    1  UNL1        0.0209
     27 C          66.1083   92.4980   12.2334 C.ar    1  UNL1        0.1026
     28 C          64.8184   91.7324   12.2303 C.ar    1  UNL1        0.0167
     29 N          66.4325   93.4259   11.1003 N.ar    1  UNL1       -0.1478
     30 N          65.6943   94.6846   10.7526 N.ar    1  UNL1       -0.1447
     31 C          66.3573   95.2946    9.5533 C.ar    1  UNL1        0.1446
     32 C          67.5054   94.4129    9.1598 C.ar    1  UNL1        0.1446
     33 N          67.5518   93.2581   10.1159 N.ar    1  UNL1       -0.1447
@<TRIPOS>BOND
     1    20    21    1
     2    21     9    1
     3     9    10   ar
     4    10    11   ar
     5    11    12   ar
     6    12     1    1
     7     1     2    2
     8     1     3   am
     9     3     4    1
    10     4     5    1
    11     5     6    1
    12     6     7    1
    13     7     8    1
    14     8    22    1
    15    22    23    1
    16    23    24   ar
    17    24    25   ar
    18    25    26   ar
    19    26    27   ar
    20    27    29    1
    21    29    30   ar
    22    30    31   ar
    23    31    32   ar
    24    32    33   ar
    25    27    28   ar
    26    12    13   ar
    27    13    15    1
    28    15    16   ar
    29    16    17   ar
    30    17    18   ar
    31    18    19   ar
    32    13    14   ar
    33    14     9   ar
    34     8     3    1
    35    28    23   ar
    36    19    15   ar
    37    33    29   ar
@<TRIPOS>MOLECULE
*****
 33 37 0 0 0
SMALL
GASTEIGER

@<TRIPOS>ATOM
      1 C          63.5340   87.4431   13.3708 C.2     1  UNL1        0.2506
      2 O          63.6859   88.4568   12.2757 O.2     1  UNL1       -0.2699
      3 N          63.4138   87.8922   14.7969 N.am    1  UNL1       -0.2723
      4 C          63.2618   86.8785   15.8922 C.3     1  UNL1        0.1257
      5 C          63.1417   87.3275   17.3183 C.3     1  UNL1        0.1637
      6 O          63.1734   88.7902   17.6493 O.3     1  UNL1       -0.3502
      7 C          63.3253   89.8039   16.5541 C.3     1  UNL1        0.1622
      8 C          63.4455   89.3548   15.1279 C.3     1  UNL1        0.1096
      9 C          63.4387   83.0551   12.3779 C.ar    1  UNL1        0.1403
     10 C          64.2814   83.5482   13.5165 C.ar    1  UNL1        0.0371
     11 C          64.3131   85.0109   13.8475 C.ar    1  UNL1        0.0092
     12 C          63.5022   85.9804   13.0398 C.ar    1  UNL1        0.0731
     13 C          62.6595   85.4872   11.9012 C.ar    1  UNL1        0.1102
     14 C          62.6278   84.0246   11.5702 C.ar    1  UNL1        0.0579
     15 N          61.8485   86.4568   11.0934 N.ar    1  UNL1       -0.1476
     16 N          60.6403   87.2073   11.5699 N.ar    1  UNL1       -0.1447
     17 C          60.1484   88.0603   10.4384 C.ar    1  UNL1        0.1446
     18 C          61.0526   87.8370    9.2626 C.ar    1  UNL1        0.1446
     19 N          62.1033   86.8460    9.6674 N.ar    1  UNL1       -0.1447
     20 C          62.7388   80.6266   12.9801 C.3     1  UNL1        0.2525
     21 O          63.4069   81.5924   12.0469 O.3     1  UNL1       -0.4714
     22 C          63.5975   90.3685   14.0328 C.3     1  UNL1        0.0488
     23 C          64.9027   91.0846   13.8494 C.ar    1  UNL1       -0.0189
     24 C          66.0089   90.8941   14.8443 C.ar    1  UNL1       -0.0041
     25 C          67.3141   91.6102   14.6609 C.ar    1  UNL1        0.0013
     26 C          67.5131   92.5168   13.4827 C.ar    1  UNL1        0.0209
     27 C          66.4069   92.7073   12.4877 C.ar    1  UNL1        0.1026
     28 C          65.1017   91.9912   12.6711 C.ar    1  UNL1        0.0167
     29 N          66.6058   93.6139   11.3094 N.ar    1  UNL1       -0.1478
     30 N          67.6531   93.4614   10.2464 N.ar    1  UNL1       -0.1447
     31 C          67.4869   94.5855    9.2672 C.ar    1  UNL1        0.1446
     32 C          66.3369   95.4328    9.7250 C.ar    1  UNL1        0.1446
     33 N          65.7924   94.8323   10.9871 N.ar    1  UNL1       -0.1447
@<TRIPOS>BOND
     1    20    21    1
     2    21     9    1
     3     9    10   ar
     4    10    11   ar
     5    11    12   ar
     6    12     1    1
     7     1     2    2
     8     1     3   am
     9     3     4    1
    10     4     5    1
    11     5     6    1
    12     6     7    1
    13     7     8    1
    14     8    22    1
    15    22    23    1
    16    23    24   ar
    17    24    25   ar
    18    25    26   ar
    19    26    27   ar
    20    27    29    1
    21    29    30   ar
    22    30    31   ar
    23    31    32   ar
    24    32    33   ar
    25    27    28   ar
    26    12    13   ar
    27    13    15    1
    28    15    16   ar
    29    16    17   ar
    30    17    18   ar
    31    18    19   ar
    32    13    14   ar
    33    14     9   ar
    34     8     3    1
    35    28    23   ar
    36    19    15   ar
    37    33    29   ar
@<TRIPOS>MOLECULE
*****
 33 37 0 0 0
SMALL
GASTEIGER

@<TRIPOS>ATOM
      1 C          62.7244   88.5311   11.5538 C.2     1  UNL1        0.2506
      2 O          62.7042   90.0302   11.5064 O.2     1  UNL1       -0.2699
      3 N          63.3491   87.8260   12.7211 N.am    1  UNL1       -0.2723
      4 C          63.3692   86.3269   12.7686 C.3     1  UNL1        0.1257
      5 C          63.9939   85.6218   13.9359 C.3     1  UNL1        0.1637
      6 O          64.5985   86.4159   15.0557 O.3     1  UNL1       -0.3502
      7 C          64.5784   87.9149   15.0083 C.3     1  UNL1        0.1622
      8 C          63.9536   88.6201   13.8409 C.3     1  UNL1        0.1096
      9 C          60.9107   86.1490    8.1943 C.ar    1  UNL1        0.1403
     10 C          62.3549   85.9607    8.5528 C.ar    1  UNL1        0.0371
     11 C          62.9595   86.7547    9.6726 C.ar    1  UNL1        0.0092
     12 C          62.1198   87.7371   10.4340 C.ar    1  UNL1        0.0731
     13 C          60.6755   87.9254   10.0756 C.ar    1  UNL1        0.1102
     14 C          60.0710   87.1314    8.9557 C.ar    1  UNL1        0.0579
     15 N          59.8357   88.9079   10.8370 N.ar    1  UNL1       -0.1476
     16 N          59.6198   90.3481   10.4775 N.ar    1  UNL1       -0.1447
     17 C          58.7151   90.9529   11.5098 C.ar    1  UNL1        0.1446
     18 C          58.3719   89.8864   12.5073 C.ar    1  UNL1        0.1446
     19 N          59.0645   88.6226   12.0914 N.ar    1  UNL1       -0.1447
     20 C          61.1718   84.4632    6.2349 C.3     1  UNL1        0.2525
     21 O          60.3061   85.3550    7.0745 O.3     1  UNL1       -0.4714
     22 C          63.9335   90.1192   13.7935 C.3     1  UNL1        0.0488
     23 C          65.2219   90.8851   13.7370 C.ar    1  UNL1       -0.0189
     24 C          66.1614   90.8598   14.9061 C.ar    1  UNL1       -0.0041
     25 C          67.4498   91.6258   14.8496 C.ar    1  UNL1        0.0013
     26 C          67.7988   92.4171   13.6241 C.ar    1  UNL1        0.0209
     27 C          66.8594   92.4424   12.4550 C.ar    1  UNL1        0.1026
     28 C          65.5710   91.6764   12.5115 C.ar    1  UNL1        0.0167
     29 N          67.2084   93.2336   11.2293 N.ar    1  UNL1       -0.1478
     30 N          68.0012   92.7383   10.0562 N.ar    1  UNL1       -0.1447
     31 C          68.1086   93.8577    9.0635 C.ar    1  UNL1        0.1446
     32 C          67.3823   95.0449    9.6231 C.ar    1  UNL1        0.1446
     33 N          66.8259   94.6591   10.9617 N.ar    1  UNL1       -0.1447
@<TRIPOS>BOND
     1    20    21    1
     2    21     9    1
     3     9    10   ar
     4    10    11   ar
     5    11    12   ar
     6    12     1    1
     7     1     2    2
     8     1     3   am
     9     3     4    1
    10     4     5    1
    11     5     6    1
    12     6     7    1
    13     7     8    1
    14     8    22    1
    15    22    23    1
    16    23    24   ar
    17    24    25   ar
    18    25    26   ar
    19    26    27   ar
    20    27    29    1
    21    29    30   ar
    22    30    31   ar
    23    31    32   ar
    24    32    33   ar
    25    27    28   ar
    26    12    13   ar
    27    13    15    1
    28    15    16   ar
    29    16    17   ar
    30    17    18   ar
    31    18    19   ar
    32    13    14   ar
    33    14     9   ar
    34     8     3    1
    35    28    23   ar
    36    19    15   ar
    37    33    29   ar
@<TRIPOS>MOLECULE
*****
 33 37 0 0 0
SMALL
GASTEIGER

@<TRIPOS>ATOM
      1 C          62.7388   89.0324   11.6491 C.2     1  UNL1        0.2506
      2 O          62.9336   87.8629   12.5679 O.2     1  UNL1       -0.2699
      3 N          61.7038   88.9704   10.5652 N.am    1  UNL1       -0.2723
      4 C          61.5090   90.1399    9.6464 C.3     1  UNL1        0.1257
      5 C          60.4739   90.0779    8.5625 C.3     1  UNL1        0.1637
      6 O          59.6336   88.8464    8.3975 O.3     1  UNL1       -0.3502
      7 C          59.8283   87.6769    9.3163 C.3     1  UNL1        0.1622
      8 C          60.8634   87.7389   10.4002 C.3     1  UNL1        0.1096
      9 C          65.2598   92.7269   12.1441 C.ar    1  UNL1        0.1403
     10 C          64.7259   92.3590   10.7916 C.ar    1  UNL1        0.0371
     11 C          63.8855   91.1275   10.6266 C.ar    1  UNL1        0.0092
     12 C          63.5792   90.2639   11.8141 C.ar    1  UNL1        0.0731
     13 C          64.1131   90.6318   13.1667 C.ar    1  UNL1        0.1102
     14 C          64.9535   91.8633   13.3317 C.ar    1  UNL1        0.0579
     15 N          63.8068   89.7682   14.3543 N.ar    1  UNL1       -0.1476
     16 N          62.7593   90.0377   15.3936 N.ar    1  UNL1       -0.1447
     17 C          62.7992   88.9196   16.3928 C.ar    1  UNL1        0.1446
     18 C          63.8714   87.9591   15.9709 C.ar    1  UNL1        0.1446
     19 N          64.4941   88.4836   14.7111 N.ar    1  UNL1       -0.1447
     20 C          66.1958   94.9562   11.1933 C.3     1  UNL1        0.2525
     21 O          66.1002   93.9584   12.3092 O.3     1  UNL1       -0.4714
     22 C          61.0582   86.5694   11.3190 C.3     1  UNL1        0.0488
     23 C          61.9512   85.4354   10.9108 C.ar    1  UNL1       -0.0189
     24 C          62.6748   85.4858    9.5979 C.ar    1  UNL1       -0.0041
     25 C          63.5678   84.3519    9.1896 C.ar    1  UNL1        0.0013
     26 C          63.7373   83.1675   10.0944 C.ar    1  UNL1        0.0209
     27 C          63.0138   83.1172   11.4073 C.ar    1  UNL1        0.1026
     28 C          62.1208   84.2511   11.8156 C.ar    1  UNL1        0.0167
     29 N          63.1833   81.9328   12.3122 N.ar    1  UNL1       -0.1478
     30 N          62.5342   80.5916   12.1399 N.ar    1  UNL1       -0.1447
     31 C          62.9814   79.7117   13.2694 C.ar    1  UNL1        0.1446
     32 C          63.9070   80.5091   14.1398 C.ar    1  UNL1        0.1446
     33 N          64.0317   81.8818   13.5482 N.ar    1  UNL1       -0.1447
@<TRIPOS>BOND
     1    20    21    1
     2    21     9    1
     3     9    10   ar
     4    10    11   ar
     5    11    12   ar
     6    12     1    1
     7     1     2    2
     8     1     3   am
     9     3     4    1
    10     4     5    1
    11     5     6    1
    12     6     7    1
    13     7     8    1
    14     8    22    1
    15    22    23    1
    16    23    24   ar
    17    24    25   ar
    18    25    26   ar
    19    26    27   ar
    20    27    29    1
    21    29    30   ar
    22    30    31   ar
    23    31    32   ar
    24    32    33   ar
    25    27    28   ar
    26    12    13   ar
    27    13    15    1
    28    15    16   ar
    29    16    17   ar
    30    17    18   ar
    31    18    19   ar
    32    13    14   ar
    33    14     9   ar
    34     8     3    1
    35    28    23   ar
    36    19    15   ar
    37    33    29   ar
@<TRIPOS>MOLECULE
*****
 33 37 0 0 0
SMALL
GASTEIGER

@<TRIPOS>ATOM
      1 C          63.4773   87.4812   13.1954 C.2     1  UNL1        0.2506
      2 O          63.4746   88.1352   11.8456 O.2     1  UNL1       -0.2699
      3 N          63.3819   88.3199   14.4353 N.am    1  UNL1       -0.2723
      4 C          63.3846   87.6659   15.7853 C.3     1  UNL1        0.1257
      5 C          63.2891   88.5046   17.0252 C.3     1  UNL1        0.1637
      6 O          63.1910   89.9973   16.9153 O.3     1  UNL1       -0.3502
      7 C          63.1883   90.6513   15.5654 C.3     1  UNL1        0.1622
      8 C          63.2838   89.8126   14.3254 C.3     1  UNL1        0.1096
      9 C          63.7716   83.0030   13.5253 C.ar    1  UNL1        0.1403
     10 C          64.4537   83.8759   14.5365 C.ar    1  UNL1        0.0371
     11 C          64.3556   85.3687   14.4266 C.ar    1  UNL1        0.0092
     12 C          63.5754   85.9885   13.3054 C.ar    1  UNL1        0.0731
     13 C          62.8933   85.1155   12.2942 C.ar    1  UNL1        0.1102
     14 C          62.9914   83.6228   12.4041 C.ar    1  UNL1        0.0579
     15 N          62.1130   85.7353   11.1729 N.ar    1  UNL1       -0.1476
     16 N          60.8924   86.5950   11.3180 N.ar    1  UNL1       -0.1447
     17 C          60.4414   86.9952    9.9445 C.ar    1  UNL1        0.1446
     18 C          61.3833   86.3828    8.9506 C.ar    1  UNL1        0.1446
     19 N          62.4164   85.6041    9.7098 N.ar    1  UNL1       -0.1447
     20 C          62.8158   80.6416   13.0150 C.3     1  UNL1        0.2525
     21 O          63.8697   81.5102   13.6352 O.3     1  UNL1       -0.4714
     22 C          63.2811   90.4667   12.9755 C.3     1  UNL1        0.0488
     23 C          64.4208   91.3532   12.5694 C.ar    1  UNL1       -0.0189
     24 C          64.4972   91.8819   11.1678 C.ar    1  UNL1       -0.0041
     25 C          65.6370   92.7685   10.7616 C.ar    1  UNL1        0.0013
     26 C          66.7004   93.1264   11.7572 C.ar    1  UNL1        0.0209
     27 C          66.6240   92.5977   13.1588 C.ar    1  UNL1        0.1026
     28 C          65.4842   91.7112   13.5649 C.ar    1  UNL1        0.0167
     29 N          67.6874   92.9556   14.1544 N.ar    1  UNL1       -0.1478
     30 N          69.1030   92.4598   14.1490 N.ar    1  UNL1       -0.1447
     31 C          69.8124   93.0699   15.3214 C.ar    1  UNL1        0.1446
     32 C          68.8351   93.9429   16.0515 C.ar    1  UNL1        0.1446
     33 N          67.5218   93.8722   15.3302 N.ar    1  UNL1       -0.1447
@<TRIPOS>BOND
     1    20    21    1
     2    21     9    1
     3     9    10   ar
     4    10    11   ar
     5    11    12   ar
     6    12     1    1
     7     1     2    2
     8     1     3   am
     9     3     4    1
    10     4     5    1
    11     5     6    1
    12     6     7    1
    13     7     8    1
    14     8    22    1
    15    22    23    1
    16    23    24   ar
    17    24    25   ar
    18    25    26   ar
    19    26    27   ar
    20    27    29    1
    21    29    30   ar
    22    30    31   ar
    23    31    32   ar
    24    32    33   ar
    25    27    28   ar
    26    12    13   ar
    27    13    15    1
    28    15    16   ar
    29    16    17   ar
    30    17    18   ar
    31    18    19   ar
    32    13    14   ar
    33    14     9   ar
    34     8     3    1
    35    28    23   ar
    36    19    15   ar
    37    33    29   ar
@<TRIPOS>MOLECULE
*****
 33 37 0 0 0
SMALL
GASTEIGER

@<TRIPOS>ATOM
      1 C          62.8536   88.2651   11.1306 C.2     1  UNL1        0.2506
      2 O          63.1244   89.7261   10.9256 O.2     1  UNL1       -0.2699
      3 N          63.2845   87.5935   12.4008 N.am    1  UNL1       -0.2723
      4 C          63.0137   86.1324   12.6058 C.3     1  UNL1        0.1257
      5 C          63.4446   85.4608   13.8760 C.3     1  UNL1        0.1637
      6 O          64.1463   86.2502   14.9411 O.3     1  UNL1       -0.3502
      7 C          64.4171   87.7112   14.7361 C.3     1  UNL1        0.1622
      8 C          63.9862   88.3829   13.4659 C.3     1  UNL1        0.1096
      9 C          60.7486   85.8968    7.9353 C.ar    1  UNL1        0.1403
     10 C          62.2176   85.7024    8.1678 C.ar    1  UNL1        0.0371
     11 C          62.9193   86.4919    9.2329 C.ar    1  UNL1        0.0092
     12 C          62.1519   87.4756   10.0655 C.ar    1  UNL1        0.0731
     13 C          60.6829   87.6700    9.8330 C.ar    1  UNL1        0.1102
     14 C          59.9812   86.8806    8.7679 C.ar    1  UNL1        0.0579
     15 N          59.9154   88.6538   10.6657 N.ar    1  UNL1       -0.1476
     16 N          59.1722   88.3467   11.9319 N.ar    1  UNL1       -0.1447
     17 C          58.5539   89.6204   12.4271 C.ar    1  UNL1        0.1446
     18 C          58.9151   90.7148   11.4669 C.ar    1  UNL1        0.1446
     19 N          59.7565   90.1174   10.3783 N.ar    1  UNL1       -0.1447
     20 C          60.8314   84.1996    5.9699 C.3     1  UNL1        0.2525
     21 O          60.0469   85.1074    6.8702 O.3     1  UNL1       -0.4714
     22 C          64.2570   89.8439   13.2609 C.3     1  UNL1        0.0488
     23 C          64.6659   90.7011   14.4219 C.ar    1  UNL1       -0.0189
     24 C          63.7334   90.8871   15.5820 C.ar    1  UNL1       -0.0041
     25 C          64.1423   91.7442   16.7430 C.ar    1  UNL1        0.0013
     26 C          65.4837   92.4154   16.7441 C.ar    1  UNL1        0.0209
     27 C          66.4163   92.2294   15.5840 C.ar    1  UNL1        0.1026
     28 C          66.0073   91.3722   14.4229 C.ar    1  UNL1        0.0167
     29 N          67.7578   92.9005   15.5850 N.ar    1  UNL1       -0.1478
     30 N          68.1174   94.1512   16.3310 N.ar    1  UNL1       -0.1447
     31 C          69.5571   94.4624   16.0472 C.ar    1  UNL1        0.1446
     32 C          70.0872   93.4041   15.1257 C.ar    1  UNL1        0.1446
     33 N          68.9752   92.4388   14.8401 N.ar    1  UNL1       -0.1447
@<TRIPOS>BOND
     1    20    21    1
     2    21     9    1
     3     9    10   ar
     4    10    11   ar
     5    11    12   ar
     6    12     1    1
     7     1     2    2
     8     1     3   am
     9     3     4    1
    10     4     5    1
    11     5     6    1
    12     6     7    1
    13     7     8    1
    14     8    22    1
    15    22    23    1
    16    23    24   ar
    17    24    25   ar
    18    25    26   ar
    19    26    27   ar
    20    27    29    1
    21    29    30   ar
    22    30    31   ar
    23    31    32   ar
    24    32    33   ar
    25    27    28   ar
    26    12    13   ar
    27    13    15    1
    28    15    16   ar
    29    16    17   ar
    30    17    18   ar
    31    18    19   ar
    32    13    14   ar
    33    14     9   ar
    34     8     3    1
    35    28    23   ar
    36    19    15   ar
    37    33    29   ar
@<TRIPOS>MOLECULE
*****
 33 37 0 0 0
SMALL
GASTEIGER

@<TRIPOS>ATOM
      1 C          64.0635   84.6399   13.8928 C.2     1  UNL1        0.2506
      2 O          65.1082   85.4473   13.1809 O.2     1  UNL1       -0.2699
      3 N          63.4123   85.1810   15.1309 N.am    1  UNL1       -0.2723
      4 C          62.3675   84.3736   15.8428 C.3     1  UNL1        0.1257
      5 C          61.7163   84.9146   17.0810 C.3     1  UNL1        0.1637
      6 O          62.1097   86.2630   17.6073 O.3     1  UNL1       -0.3502
      7 C          63.1544   87.0704   16.8955 C.3     1  UNL1        0.1622
      8 C          63.8057   86.5294   15.6573 C.3     1  UNL1        0.1096
      9 C          62.8832   80.5947   12.3138 C.ar    1  UNL1        0.1403
     10 C          63.6067   80.7069   13.6229 C.ar    1  UNL1        0.0371
     11 C          64.0001   82.0553   14.1493 C.ar    1  UNL1        0.0092
     12 C          63.6701   83.2915   13.3664 C.ar    1  UNL1        0.0731
     13 C          62.9466   83.1793   12.0573 C.ar    1  UNL1        0.1102
     14 C          62.5532   81.8309   11.5309 C.ar    1  UNL1        0.0579
     15 N          62.6166   84.4155   11.2744 N.ar    1  UNL1       -0.1476
     16 N          63.0956   84.7363    9.8895 N.ar    1  UNL1       -0.1447
     17 C          62.5247   86.0670    9.4981 C.ar    1  UNL1        0.1446
     18 C          61.6928   86.5687   10.6411 C.ar    1  UNL1        0.1446
     19 N          61.7496   85.5480   11.7388 N.ar    1  UNL1       -0.1447
     20 C          62.7917   78.8792   10.3648 C.3     1  UNL1        0.2525
     21 O          62.4898   79.2463   11.7874 O.3     1  UNL1       -0.4714
     22 C          64.8504   87.3367   14.9454 C.3     1  UNL1        0.0488
     23 C          64.4738   88.6220   14.2700 C.ar    1  UNL1       -0.0189
     24 C          65.2735   89.8653   14.5243 C.ar    1  UNL1       -0.0041
     25 C          64.8969   91.1505   13.8489 C.ar    1  UNL1        0.0013
     26 C          63.7205   91.1926   12.9192 C.ar    1  UNL1        0.0209
     27 C          62.9208   89.9493   12.6649 C.ar    1  UNL1        0.1026
     28 C          63.2974   88.6640   13.3403 C.ar    1  UNL1        0.0167
     29 N          61.7444   89.9913   11.7352 N.ar    1  UNL1       -0.1478
     30 N          61.7753   90.3985   10.2919 N.ar    1  UNL1       -0.1447
     31 C          60.3806   90.2923    9.7503 C.ar    1  UNL1        0.1446
     32 C          59.4875   89.8195   10.8589 C.ar    1  UNL1        0.1446
     33 N          60.3305   89.6335   12.0856 N.ar    1  UNL1       -0.1447
@<TRIPOS>BOND
     1    20    21    1
     2    21     9    1
     3     9    10   ar
     4    10    11   ar
     5    11    12   ar
     6    12     1    1
     7     1     2    2
     8     1     3   am
     9     3     4    1
    10     4     5    1
    11     5     6    1
    12     6     7    1
    13     7     8    1
    14     8    22    1
    15    22    23    1
    16    23    24   ar
    17    24    25   ar
    18    25    26   ar
    19    26    27   ar
    20    27    29    1
    21    29    30   ar
    22    30    31   ar
    23    31    32   ar
    24    32    33   ar
    25    27    28   ar
    26    12    13   ar
    27    13    15    1
    28    15    16   ar
    29    16    17   ar
    30    17    18   ar
    31    18    19   ar
    32    13    14   ar
    33    14     9   ar
    34     8     3    1
    35    28    23   ar
    36    19    15   ar
    37    33    29   ar
