@<TRIPOS>MOLECULE
*****
 31 33 0 0 0
SMALL
GASTEIGER

@<TRIPOS>ATOM
      1 C          61.1283   89.0913   10.6538 C.ar    1  UNL1        0.1386
      2 C          61.4950   89.9961    9.5151 C.ar    1  UNL1        0.0369
      3 C          62.6303   90.9652    9.6628 C.ar    1  UNL1        0.0031
      4 C          63.3990   91.0295   10.9492 C.ar    1  UNL1       -0.0001
      5 C          64.5344   91.9986   11.0969 C.ar    1  UNL1       -0.0024
      6 C          65.3031   92.0629   12.3833 C.ar    1  UNL1       -0.0004
      7 C          64.9364   91.1580   13.5221 C.ar    1  UNL1       -0.0024
      8 C          63.8011   90.1889   13.3744 C.ar    1  UNL1       -0.0002
      9 C          63.0324   90.1247   12.0879 C.ar    1  UNL1        0.0030
     10 C          61.8970   89.1556   11.9402 C.ar    1  UNL1        0.0369
     11 O          59.9930   88.1222   10.5062 O.3     1  UNL1       -0.4751
     12 C          60.2724   86.6549   10.3688 C.3     1  UNL1        0.2103
     13 C          60.9625   86.1343    9.1429 C.3     1  UNL1        0.0723
     14 C          61.6526   85.6138    7.9170 C.2     1  UNL1        0.0532
     15 O          63.1507   85.5576    7.8665 O.co2   1  UNL1       -0.5491
     16 O          60.8446   85.1494    6.7417 O.co2   1  UNL1       -0.5491
     17 C          59.5320   87.6993    7.6414 C.3     1  UNL1        0.0005
     18 C          59.7216   86.3846    8.3382 C.3     1  UNL1        0.0088
     19 C          62.2033   85.8841    9.9477 C.3     1  UNL1        0.0088
     20 C          62.0947   85.3838   11.3576 C.3     1  UNL1        0.0005
     21 C          66.4384   93.0320   12.5309 C.3     1  UNL1        0.1240
     22 N          67.2946   93.0022   13.7622 N.ar    1  UNL1       -0.3045
     23 C          67.1380   93.8825   14.9665 C.ar    1  UNL1        0.0983
     24 C          68.2044   93.5112   15.9539 C.ar    1  UNL1        0.1193
     25 N          69.0201   92.4013   15.3598 N.ar    1  UNL1       -0.2223
     26 C          68.4578   92.0867   14.0053 C.ar    1  UNL1        0.1788
     27 C          66.7175   94.0310   11.4473 C.3     1  UNL1        0.0827
     28 C          66.1648   95.4217   11.5488 C.3     1  UNL1        0.0197
     29 N          67.5494   93.6392   10.2622 N.3     1  UNL1       -0.2696
     30 C          68.1125   92.2521   10.1667 C.3     1  UNL1        0.0897
     31 C          67.8182   94.6344    9.1726 C.3     1  UNL1        0.0897
@<TRIPOS>UNITY_ATOM_ATTR
15 1
charge -1
@<TRIPOS>BOND
     1    17    18    1
     2    18    13    1
     3    13    19    1
     4    19    20    1
     5    13    12    1
     6    12    11    1
     7    11     1    1
     8     1     2   ar
     9     2     3   ar
    10     3     4   ar
    11     4     5   ar
    12     5     6   ar
    13     6    21    1
    14    21    27    1
    15    27    28    1
    16    27    29    1
    17    29    30    1
    18    29    31    1
    19    21    22    1
    20    22    23   ar
    21    23    24   ar
    22    24    25   ar
    23    25    26   ar
    24     6     7   ar
    25     7     8   ar
    26     8     9   ar
    27     9    10   ar
    28    13    14    1
    29    14    15   ar
    30    14    16   ar
    31    10     1   ar
    32     9     4   ar
    33    26    22   ar
@<TRIPOS>MOLECULE
*****
 31 33 0 0 0
SMALL
GASTEIGER

@<TRIPOS>ATOM
      1 C          61.1503   89.0725   10.6814 C.ar    1  UNL1        0.1386
      2 C          61.5038   89.9827    9.5428 C.ar    1  UNL1        0.0369
      3 C          62.6355   90.9569    9.6848 C.ar    1  UNL1        0.0031
      4 C          63.4137   91.0209   10.9655 C.ar    1  UNL1       -0.0001
      5 C          64.5454   91.9951   11.1076 C.ar    1  UNL1       -0.0024
      6 C          65.3236   92.0591   12.3883 C.ar    1  UNL1       -0.0004
      7 C          64.9702   91.1489   13.5270 C.ar    1  UNL1       -0.0024
      8 C          63.8385   90.1747   13.3850 C.ar    1  UNL1       -0.0002
      9 C          63.0602   90.1107   12.1042 C.ar    1  UNL1        0.0030
     10 C          61.9285   89.1365   11.9621 C.ar    1  UNL1        0.0369
     11 O          60.0186   88.0983   10.5394 O.3     1  UNL1       -0.4751
     12 C          60.3045   86.6340   10.3843 C.3     1  UNL1        0.2103
     13 C          60.9706   86.1276    9.1393 C.3     1  UNL1        0.0723
     14 C          61.6366   85.6211    7.8944 C.2     1  UNL1        0.0532
     15 O          63.1332   85.5536    7.8188 O.co2   1  UNL1       -0.5491
     16 O          60.8061   85.1823    6.7249 O.co2   1  UNL1       -0.5491
     17 C          62.1169   85.3640   11.3422 C.3     1  UNL1        0.0005
     18 C          62.2166   85.8395    9.9231 C.3     1  UNL1        0.0088
     19 C          59.7245   86.4156    8.3555 C.3     1  UNL1        0.0088
     20 C          59.5638   87.7351    7.6606 C.3     1  UNL1        0.0005
     21 C          66.4553   93.0333   12.5303 C.3     1  UNL1        0.1240
     22 N          67.3105   93.0150   13.7625 N.ar    1  UNL1       -0.3045
     23 C          67.1472   93.9004   14.9623 C.ar    1  UNL1        0.0983
     24 C          68.2149   93.5407   15.9526 C.ar    1  UNL1        0.1193
     25 N          69.0381   92.4330   15.3648 N.ar    1  UNL1       -0.2223
     26 C          68.4792   92.1082   14.0113 C.ar    1  UNL1        0.1788
     27 C          66.7318   94.0259   11.4402 C.3     1  UNL1        0.0827
     28 C          66.1735   95.4151   11.5315 C.3     1  UNL1        0.0197
     29 N          67.5665   93.6292   10.2587 N.3     1  UNL1       -0.2696
     30 C          68.1540   92.2510   10.1843 C.3     1  UNL1        0.0897
     31 C          67.8139   94.6107    9.1517 C.3     1  UNL1        0.0897
@<TRIPOS>UNITY_ATOM_ATTR
15 1
charge -1
@<TRIPOS>BOND
     1    17    18    1
     2    18    13    1
     3    13    19    1
     4    19    20    1
     5    13    12    1
     6    12    11    1
     7    11     1    1
     8     1     2   ar
     9     2     3   ar
    10     3     4   ar
    11     4     5   ar
    12     5     6   ar
    13     6    21    1
    14    21    27    1
    15    27    28    1
    16    27    29    1
    17    29    30    1
    18    29    31    1
    19    21    22    1
    20    22    23   ar
    21    23    24   ar
    22    24    25   ar
    23    25    26   ar
    24     6     7   ar
    25     7     8   ar
    26     8     9   ar
    27     9    10   ar
    28    13    14    1
    29    14    15   ar
    30    14    16   ar
    31    10     1   ar
    32     9     4   ar
    33    26    22   ar
@<TRIPOS>MOLECULE
*****
 31 33 0 0 0
SMALL
GASTEIGER

@<TRIPOS>ATOM
      1 C          61.2486   88.9647   10.7250 C.ar    1  UNL1        0.1386
      2 C          61.5077   89.9571    9.6305 C.ar    1  UNL1        0.0369
      3 C          62.5842   90.9889    9.7930 C.ar    1  UNL1        0.0031
      4 C          63.4016   91.0284   11.0501 C.ar    1  UNL1       -0.0001
      5 C          64.4781   92.0603   11.2126 C.ar    1  UNL1       -0.0024
      6 C          65.2954   92.0998   12.4697 C.ar    1  UNL1       -0.0004
      7 C          65.0363   91.1075   13.5643 C.ar    1  UNL1       -0.0024
      8 C          63.9598   90.0756   13.4018 C.ar    1  UNL1       -0.0002
      9 C          63.1424   90.0361   12.1446 C.ar    1  UNL1        0.0030
     10 C          62.0659   89.0043   11.9821 C.ar    1  UNL1        0.0369
     11 O          60.1720   87.9329   10.5625 O.3     1  UNL1       -0.4751
     12 C          60.5367   86.4853   10.4160 C.3     1  UNL1        0.2103
     13 C          61.0897   85.9789    9.1169 C.3     1  UNL1        0.0723
     14 C          61.6428   85.4725    7.8178 C.2     1  UNL1        0.0532
     15 O          63.1269   85.3915    7.6152 O.co2   1  UNL1       -0.5491
     16 O          60.7119   85.0472    6.7213 O.co2   1  UNL1       -0.5491
     17 C          59.7141   87.6416    7.6702 C.3     1  UNL1        0.0005
     18 C          59.8104   86.3504    8.4274 C.3     1  UNL1        0.0088
     19 C          62.3691   85.6074    9.8063 C.3     1  UNL1        0.0088
     20 C          62.3691   85.3066   11.2758 C.3     1  UNL1        0.0005
     21 C          66.3719   93.1317   12.6322 C.3     1  UNL1        0.1240
     22 N          66.6101   94.1438   11.5511 N.ar    1  UNL1       -0.3045
     23 C          67.2807   93.8860   10.2343 C.ar    1  UNL1        0.0983
     24 C          67.3045   95.1743    9.4663 C.ar    1  UNL1        0.1193
     25 N          66.6487   96.2282   10.3084 N.ar    1  UNL1       -0.2223
     26 C          66.2195   95.5913   11.5969 C.ar    1  UNL1        0.1788
     27 C          67.2103   93.1514   13.8760 C.3     1  UNL1        0.0827
     28 C          66.7425   93.9078   15.0838 C.3     1  UNL1        0.0197
     29 N          68.5164   92.4147   13.9118 N.3     1  UNL1       -0.2696
     30 C          69.3838   92.4848   15.1337 C.3     1  UNL1        0.0897
     31 C          68.9552   91.6079   12.7259 C.3     1  UNL1        0.0897
@<TRIPOS>UNITY_ATOM_ATTR
15 1
charge -1
@<TRIPOS>BOND
     1    17    18    1
     2    18    13    1
     3    13    19    1
     4    19    20    1
     5    13    12    1
     6    12    11    1
     7    11     1    1
     8     1     2   ar
     9     2     3   ar
    10     3     4   ar
    11     4     5   ar
    12     5     6   ar
    13     6    21    1
    14    21    27    1
    15    27    28    1
    16    27    29    1
    17    29    30    1
    18    29    31    1
    19    21    22    1
    20    22    23   ar
    21    23    24   ar
    22    24    25   ar
    23    25    26   ar
    24     6     7   ar
    25     7     8   ar
    26     8     9   ar
    27     9    10   ar
    28    13    14    1
    29    14    15   ar
    30    14    16   ar
    31    10     1   ar
    32     9     4   ar
    33    26    22   ar
@<TRIPOS>MOLECULE
*****
 31 33 0 0 0
SMALL
GASTEIGER

@<TRIPOS>ATOM
      1 C          61.2454   88.7240   11.0067 C.ar    1  UNL1        0.1386
      2 C          61.4222   89.7172    9.8967 C.ar    1  UNL1        0.0369
      3 C          62.4764   90.7791   10.0012 C.ar    1  UNL1        0.0031
      4 C          63.3539   90.8478   11.2158 C.ar    1  UNL1       -0.0001
      5 C          64.4081   91.9097   11.3204 C.ar    1  UNL1       -0.0024
      6 C          65.2856   91.9784   12.5350 C.ar    1  UNL1       -0.0004
      7 C          65.1088   90.9852   13.6451 C.ar    1  UNL1       -0.0024
      8 C          64.0546   89.9233   13.5406 C.ar    1  UNL1       -0.0002
      9 C          63.1771   89.8546   12.3259 C.ar    1  UNL1        0.0030
     10 C          62.1229   88.7927   12.2213 C.ar    1  UNL1        0.0369
     11 O          60.1912   87.6621   10.9022 O.3     1  UNL1       -0.4751
     12 C          59.8486   87.0744    9.5653 C.3     1  UNL1        0.2103
     13 C          60.8945   86.3430    8.7773 C.3     1  UNL1        0.0723
     14 C          61.9405   85.6116    7.9892 C.2     1  UNL1        0.0532
     15 O          63.3818   85.6962    8.3962 O.co2   1  UNL1       -0.5491
     16 O          61.5452   84.7957    6.7943 O.co2   1  UNL1       -0.5491
     17 C          61.9123   84.8545   10.6477 C.3     1  UNL1        0.0005
     18 C          61.7292   86.2024   10.0156 C.3     1  UNL1        0.0088
     19 C          60.0598   86.4836    7.5389 C.3     1  UNL1        0.0088
     20 C          59.0370   87.5766    7.4440 C.3     1  UNL1        0.0005
     21 C          66.3398   93.0404   12.6395 C.3     1  UNL1        0.1240
     22 N          66.5315   94.0197   11.5197 N.ar    1  UNL1       -0.3045
     23 C          66.1455   95.4690   11.5402 C.ar    1  UNL1        0.0983
     24 C          66.5183   96.0668   10.2159 C.ar    1  UNL1        0.1193
     25 N          67.1347   94.9868    9.3769 N.ar    1  UNL1       -0.2223
     26 C          67.1429   93.7217   10.1827 C.ar    1  UNL1        0.1788
     27 C          67.2024   93.1229   13.8640 C.3     1  UNL1        0.0827
     28 C          66.7161   93.8616   15.0756 C.3     1  UNL1        0.0197
     29 N          68.5511   92.4667   13.8769 N.3     1  UNL1       -0.2696
     30 C          69.4821   92.6886   15.0320 C.3     1  UNL1        0.0897
     31 C          68.9690   91.5887   12.7348 C.3     1  UNL1        0.0897
@<TRIPOS>UNITY_ATOM_ATTR
15 1
charge -1
@<TRIPOS>BOND
     1    17    18    1
     2    18    13    1
     3    13    19    1
     4    19    20    1
     5    13    12    1
     6    12    11    1
     7    11     1    1
     8     1     2   ar
     9     2     3   ar
    10     3     4   ar
    11     4     5   ar
    12     5     6   ar
    13     6    21    1
    14    21    27    1
    15    27    28    1
    16    27    29    1
    17    29    30    1
    18    29    31    1
    19    21    22    1
    20    22    23   ar
    21    23    24   ar
    22    24    25   ar
    23    25    26   ar
    24     6     7   ar
    25     7     8   ar
    26     8     9   ar
    27     9    10   ar
    28    13    14    1
    29    14    15   ar
    30    14    16   ar
    31    10     1   ar
    32     9     4   ar
    33    26    22   ar
@<TRIPOS>MOLECULE
*****
 31 33 0 0 0
SMALL
GASTEIGER

@<TRIPOS>ATOM
      1 C          62.9424   86.1911   13.1388 C.ar    1  UNL1        0.1386
      2 C          63.8617   86.2536   14.3224 C.ar    1  UNL1        0.0369
      3 C          64.5954   87.5238   14.6359 C.ar    1  UNL1        0.0031
      4 C          64.4099   88.7314   13.7659 C.ar    1  UNL1       -0.0001
      5 C          65.1437   90.0016   14.0794 C.ar    1  UNL1       -0.0024
      6 C          64.9582   91.2093   13.2093 C.ar    1  UNL1       -0.0004
      7 C          64.0388   91.1468   12.0256 C.ar    1  UNL1       -0.0024
      8 C          63.3051   89.8766   11.7121 C.ar    1  UNL1       -0.0002
      9 C          63.4906   88.6689   12.5822 C.ar    1  UNL1        0.0030
     10 C          62.7569   87.3988   12.2687 C.ar    1  UNL1        0.0369
     11 O          62.2086   84.9210   12.8253 O.3     1  UNL1       -0.4751
     12 C          62.9742   83.6593   12.5567 C.3     1  UNL1        0.2103
     13 C          62.4170   82.3367   12.9930 C.3     1  UNL1        0.0723
     14 C          61.8599   81.0141   13.4293 C.2     1  UNL1        0.0532
     15 O          62.5000   79.7401   12.9631 O.co2   1  UNL1       -0.5491
     16 O          60.6627   80.9655   14.3316 O.co2   1  UNL1       -0.5491
     17 C          63.7202   82.3642   10.7455 C.3     1  UNL1        0.0005
     18 C          62.6433   81.7871   11.6158 C.3     1  UNL1        0.0088
     19 C          62.1907   82.8863   14.3702 C.3     1  UNL1        0.0088
     20 C          63.3396   83.0095   15.3267 C.3     1  UNL1        0.0005
     21 C          65.6919   92.4794   13.5228 C.3     1  UNL1        0.1240
     22 N          65.8219   93.5479   12.4781 N.ar    1  UNL1       -0.3045
     23 C          66.2912   94.9538   12.7086 C.ar    1  UNL1        0.0983
     24 C          66.2649   95.6729   11.3925 C.ar    1  UNL1        0.1193
     25 N          65.7793   94.7114   10.3485 N.ar    1  UNL1       -0.2223
     26 C          65.5055   93.3980   11.0196 C.ar    1  UNL1        0.1788
     27 C          66.2956   92.6811   14.8811 C.3     1  UNL1        0.0827
     28 C          65.4163   92.7095   16.0960 C.3     1  UNL1        0.0197
     29 N          67.7787   92.8542   15.0245 N.3     1  UNL1       -0.2696
     30 C          68.3260   93.8682   15.9850 C.3     1  UNL1        0.0897
     31 C          68.7144   92.0135   14.2075 C.3     1  UNL1        0.0897
@<TRIPOS>UNITY_ATOM_ATTR
15 1
charge -1
@<TRIPOS>BOND
     1    17    18    1
     2    18    13    1
     3    13    19    1
     4    19    20    1
     5    13    12    1
     6    12    11    1
     7    11     1    1
     8     1     2   ar
     9     2     3   ar
    10     3     4   ar
    11     4     5   ar
    12     5     6   ar
    13     6    21    1
    14    21    27    1
    15    27    28    1
    16    27    29    1
    17    29    30    1
    18    29    31    1
    19    21    22    1
    20    22    23   ar
    21    23    24   ar
    22    24    25   ar
    23    25    26   ar
    24     6     7   ar
    25     7     8   ar
    26     8     9   ar
    27     9    10   ar
    28    13    14    1
    29    14    15   ar
    30    14    16   ar
    31    10     1   ar
    32     9     4   ar
    33    26    22   ar
@<TRIPOS>MOLECULE
*****
 31 33 0 0 0
SMALL
GASTEIGER

@<TRIPOS>ATOM
      1 C          61.9874   87.4688   11.2999 C.ar    1  UNL1        0.1386
      2 C          62.0012   88.5556   10.2662 C.ar    1  UNL1        0.0369
      3 C          62.8128   89.7965   10.4933 C.ar    1  UNL1        0.0031
      4 C          63.6107   89.9505   11.7541 C.ar    1  UNL1       -0.0001
      5 C          64.4223   91.1913   11.9812 C.ar    1  UNL1       -0.0024
      6 C          65.2201   91.3454   13.2420 C.ar    1  UNL1       -0.0004
      7 C          65.2063   90.2585   14.2758 C.ar    1  UNL1       -0.0024
      8 C          64.3947   89.0177   14.0487 C.ar    1  UNL1       -0.0002
      9 C          63.5968   88.8637   12.7878 C.ar    1  UNL1        0.0030
     10 C          62.7852   87.6229   12.5607 C.ar    1  UNL1        0.0369
     11 O          61.1758   86.2280   11.0728 O.3     1  UNL1       -0.4751
     12 C          61.7120   85.1297   10.2032 C.3     1  UNL1        0.2103
     13 C          62.9326   84.3670   10.6256 C.3     1  UNL1        0.0723
     14 C          64.1532   83.6043   11.0479 C.2     1  UNL1        0.0532
     15 O          64.7757   82.6086   10.1145 O.co2   1  UNL1       -0.5491
     16 O          64.7514   83.8372   12.4036 O.co2   1  UNL1       -0.5491
     17 C          62.1945   82.5983   12.3796 C.3     1  UNL1        0.0005
     18 C          62.2695   84.0265   11.9272 C.3     1  UNL1        0.0088
     19 C          63.5958   84.7076    9.3239 C.3     1  UNL1        0.0088
     20 C          62.7756   85.2115    8.1736 C.3     1  UNL1        0.0005
     21 C          66.0318   92.5862   13.4692 C.3     1  UNL1        0.1240
     22 N          66.2381   93.5628   12.3495 N.ar    1  UNL1       -0.3045
     23 C          66.5039   93.2158   10.9147 C.ar    1  UNL1        0.0983
     24 C          66.6449   94.4964   10.1465 C.ar    1  UNL1        0.1193
     25 N          66.4662   95.6350   11.1067 N.ar    1  UNL1       -0.2223
     26 C          66.2148   95.0580   12.4682 C.ar    1  UNL1        0.1788
     27 C          66.6371   92.8504   14.8160 C.3     1  UNL1        0.0827
     28 C          65.7668   92.8762   16.0374 C.3     1  UNL1        0.0197
     29 N          68.1127   93.0887   14.9413 N.3     1  UNL1       -0.2696
     30 C          68.6265   94.1266   15.8947 C.3     1  UNL1        0.0897
     31 C          69.0746   92.2891   14.1134 C.3     1  UNL1        0.0897
@<TRIPOS>UNITY_ATOM_ATTR
15 1
charge -1
@<TRIPOS>BOND
     1    17    18    1
     2    18    13    1
     3    13    19    1
     4    19    20    1
     5    13    12    1
     6    12    11    1
     7    11     1    1
     8     1     2   ar
     9     2     3   ar
    10     3     4   ar
    11     4     5   ar
    12     5     6   ar
    13     6    21    1
    14    21    27    1
    15    27    28    1
    16    27    29    1
    17    29    30    1
    18    29    31    1
    19    21    22    1
    20    22    23   ar
    21    23    24   ar
    22    24    25   ar
    23    25    26   ar
    24     6     7   ar
    25     7     8   ar
    26     8     9   ar
    27     9    10   ar
    28    13    14    1
    29    14    15   ar
    30    14    16   ar
    31    10     1   ar
    32     9     4   ar
    33    26    22   ar
@<TRIPOS>MOLECULE
*****
 31 33 0 0 0
SMALL
GASTEIGER

@<TRIPOS>ATOM
      1 C          62.1446   85.2787   11.8556 C.ar    1  UNL1        0.1386
      2 C          61.8116   86.3297   10.8386 C.ar    1  UNL1        0.0369
      3 C          62.3154   87.7314   11.0160 C.ar    1  UNL1        0.0031
      4 C          63.1520   88.0822   12.2106 C.ar    1  UNL1       -0.0001
      5 C          63.6557   89.4839   12.3880 C.ar    1  UNL1       -0.0024
      6 C          64.4924   89.8346   13.5825 C.ar    1  UNL1       -0.0004
      7 C          64.8253   88.7835   14.5997 C.ar    1  UNL1       -0.0024
      8 C          64.3216   87.3818   14.4223 C.ar    1  UNL1       -0.0002
      9 C          63.4849   87.0312   13.2276 C.ar    1  UNL1        0.0030
     10 C          62.9812   85.6294   13.0502 C.ar    1  UNL1        0.0369
     11 O          61.6408   83.8770   11.6782 O.3     1  UNL1       -0.4751
     12 C          62.6056   82.7285   11.6723 C.3     1  UNL1        0.2103
     13 C          63.2377   82.2734   12.9542 C.3     1  UNL1        0.0723
     14 C          63.8699   81.8183   14.2361 C.2     1  UNL1        0.0532
     15 O          64.2790   80.3848   14.4030 O.co2   1  UNL1       -0.5491
     16 O          64.0929   82.7966   15.3510 O.co2   1  UNL1       -0.5491
     17 C          61.2170   80.8701   13.7892 C.3     1  UNL1        0.0005
     18 C          61.8838   82.1997   13.5957 C.3     1  UNL1        0.0088
     19 C          64.5916   82.3471   12.3127 C.3     1  UNL1        0.0088
     20 C          64.7191   82.7547   10.8748 C.3     1  UNL1        0.0005
     21 C          64.9961   91.2363   13.7600 C.3     1  UNL1        0.1240
     22 N          65.1270   92.1422   12.5717 N.ar    1  UNL1       -0.3045
     23 C          65.8957   93.4295   12.5249 C.ar    1  UNL1        0.0983
     24 C          65.7560   94.0029   11.1459 C.ar    1  UNL1        0.1193
     25 N          64.9011   93.0699   10.3404 N.ar    1  UNL1       -0.2223
     26 C          64.5124   91.9200   11.2216 C.ar    1  UNL1        0.1788
     27 C          65.3689   91.7320   15.1258 C.3     1  UNL1        0.0827
     28 C          64.3074   91.9319   16.1666 C.3     1  UNL1        0.0197
     29 N          66.8031   92.0277   15.4507 N.3     1  UNL1       -0.2696
     30 C          67.1407   93.0811   16.4639 C.3     1  UNL1        0.0897
     31 C          67.8996   91.2702   14.7625 C.3     1  UNL1        0.0897
@<TRIPOS>UNITY_ATOM_ATTR
15 1
charge -1
@<TRIPOS>BOND
     1    17    18    1
     2    18    13    1
     3    13    19    1
     4    19    20    1
     5    13    12    1
     6    12    11    1
     7    11     1    1
     8     1     2   ar
     9     2     3   ar
    10     3     4   ar
    11     4     5   ar
    12     5     6   ar
    13     6    21    1
    14    21    27    1
    15    27    28    1
    16    27    29    1
    17    29    30    1
    18    29    31    1
    19    21    22    1
    20    22    23   ar
    21    23    24   ar
    22    24    25   ar
    23    25    26   ar
    24     6     7   ar
    25     7     8   ar
    26     8     9   ar
    27     9    10   ar
    28    13    14    1
    29    14    15   ar
    30    14    16   ar
    31    10     1   ar
    32     9     4   ar
    33    26    22   ar
@<TRIPOS>MOLECULE
*****
 31 33 0 0 0
SMALL
GASTEIGER

@<TRIPOS>ATOM
      1 C          63.2271   84.6275   14.2922 C.ar    1  UNL1        0.1386
      2 C          64.0911   85.0926   15.4267 C.ar    1  UNL1        0.0369
      3 C          64.6009   86.5031   15.4519 C.ar    1  UNL1        0.0031
      4 C          64.2467   87.4485   14.3425 C.ar    1  UNL1       -0.0001
      5 C          64.7565   88.8590   14.3676 C.ar    1  UNL1       -0.0024
      6 C          64.4024   89.8043   13.2582 C.ar    1  UNL1       -0.0004
      7 C          63.5384   89.3392   12.1236 C.ar    1  UNL1       -0.0024
      8 C          63.0286   87.9288   12.0985 C.ar    1  UNL1       -0.0002
      9 C          63.3828   86.9834   13.2079 C.ar    1  UNL1        0.0030
     10 C          62.8730   85.5729   13.1828 C.ar    1  UNL1        0.0369
     11 O          62.7173   83.2170   14.2671 O.3     1  UNL1       -0.4751
     12 C          62.2425   82.6140   12.9783 C.3     1  UNL1        0.2103
     13 C          62.4588   81.1544   12.7087 C.3     1  UNL1        0.0723
     14 C          62.6752   79.6948   12.4390 C.2     1  UNL1        0.0532
     15 O          62.7293   79.1930   11.0264 O.co2   1  UNL1       -0.5491
     16 O          62.8374   78.7369   13.5818 O.co2   1  UNL1       -0.5491
     17 C          64.2343   82.4598   11.3326 C.3     1  UNL1        0.0005
     18 C          63.0902   81.4915   11.3904 C.3     1  UNL1        0.0088
     19 C          61.8275   80.8173   14.0269 C.3     1  UNL1        0.0088
     20 C          60.3387   80.6652   14.1285 C.3     1  UNL1        0.0005
     21 C          64.9122   91.2148   13.2833 C.3     1  UNL1        0.1240
     22 N          65.4264   91.8038   14.5634 N.ar    1  UNL1       -0.3045
     23 C          66.8495   92.1799   14.8518 C.ar    1  UNL1        0.0983
     24 C          66.9105   92.7286   16.2465 C.ar    1  UNL1        0.1193
     25 N          65.5250   92.6915   16.8202 N.ar    1  UNL1       -0.2223
     26 C          64.6078   92.1200   15.7800 C.ar    1  UNL1        0.1788
     27 C          64.9077   92.0364   12.0283 C.3     1  UNL1        0.0827
     28 C          63.7208   91.9994   11.1119 C.3     1  UNL1        0.0197
     29 N          66.0902   92.8949   11.6897 N.3     1  UNL1       -0.2696
     30 C          66.1253   94.3294   12.1268 C.3     1  UNL1        0.0897
     31 C          67.2376   92.3190   10.9139 C.3     1  UNL1        0.0897
@<TRIPOS>UNITY_ATOM_ATTR
15 1
charge -1
@<TRIPOS>BOND
     1    17    18    1
     2    18    13    1
     3    13    19    1
     4    19    20    1
     5    13    12    1
     6    12    11    1
     7    11     1    1
     8     1     2   ar
     9     2     3   ar
    10     3     4   ar
    11     4     5   ar
    12     5     6   ar
    13     6    21    1
    14    21    27    1
    15    27    28    1
    16    27    29    1
    17    29    30    1
    18    29    31    1
    19    21    22    1
    20    22    23   ar
    21    23    24   ar
    22    24    25   ar
    23    25    26   ar
    24     6     7   ar
    25     7     8   ar
    26     8     9   ar
    27     9    10   ar
    28    13    14    1
    29    14    15   ar
    30    14    16   ar
    31    10     1   ar
    32     9     4   ar
    33    26    22   ar
@<TRIPOS>MOLECULE
*****
 31 33 0 0 0
SMALL
GASTEIGER

@<TRIPOS>ATOM
      1 C          62.4095   84.5408   12.3457 C.ar    1  UNL1        0.1386
      2 C          61.9649   85.4383   11.2291 C.ar    1  UNL1        0.0369
      3 C          62.3244   86.8944   11.2489 C.ar    1  UNL1        0.0031
      4 C          63.1284   87.4531   12.3853 C.ar    1  UNL1       -0.0001
      5 C          63.4879   88.9093   12.4050 C.ar    1  UNL1       -0.0024
      6 C          64.2919   89.4679   13.5414 C.ar    1  UNL1       -0.0004
      7 C          64.7365   88.5704   14.6581 C.ar    1  UNL1       -0.0024
      8 C          64.3771   87.1143   14.6383 C.ar    1  UNL1       -0.0002
      9 C          63.5730   86.5556   13.5018 C.ar    1  UNL1        0.0030
     10 C          63.2135   85.0995   13.4821 C.ar    1  UNL1        0.0369
     11 O          62.0500   83.0846   12.3260 O.3     1  UNL1       -0.4751
     12 C          63.1305   82.0448   12.3624 C.3     1  UNL1        0.2103
     13 C          62.9714   80.7705   11.5873 C.3     1  UNL1        0.0723
     14 C          62.8124   79.4961   10.8123 C.2     1  UNL1        0.0532
     15 O          62.7977   79.5272    9.3126 O.co2   1  UNL1       -0.5491
     16 O          62.6680   78.1907   11.5368 O.co2   1  UNL1       -0.5491
     17 C          64.4776   82.5042   10.3726 C.3     1  UNL1        0.0005
     18 C          63.3797   81.4830   10.3321 C.3     1  UNL1        0.0088
     19 C          62.5631   80.0580   12.8426 C.3     1  UNL1        0.0088
     20 C          61.7270   80.7647   13.8680 C.3     1  UNL1        0.0005
     21 C          64.6514   90.9241   13.5611 C.3     1  UNL1        0.1240
     22 N          64.9748   91.5992   14.8609 N.ar    1  UNL1       -0.3045
     23 C          66.3047   92.1746   15.2486 C.ar    1  UNL1        0.0983
     24 C          66.1770   92.7485   16.6285 C.ar    1  UNL1        0.1193
     25 N          64.7682   92.5277   17.0939 N.ar    1  UNL1       -0.2223
     26 C          64.0252   91.8174   16.0014 C.ar    1  UNL1        0.1788
     27 C          64.6873   91.7052   12.2810 C.3     1  UNL1        0.0827
     28 C          63.5160   91.6651   11.3448 C.3     1  UNL1        0.0197
     29 N          65.8946   92.5262   11.9370 N.3     1  UNL1       -0.2696
     30 C          65.7310   93.9455   11.4798 C.3     1  UNL1        0.0897
     31 C          67.2655   91.9281   12.0504 C.3     1  UNL1        0.0897
@<TRIPOS>UNITY_ATOM_ATTR
15 1
charge -1
@<TRIPOS>BOND
     1    17    18    1
     2    18    13    1
     3    13    19    1
     4    19    20    1
     5    13    12    1
     6    12    11    1
     7    11     1    1
     8     1     2   ar
     9     2     3   ar
    10     3     4   ar
    11     4     5   ar
    12     5     6   ar
    13     6    21    1
    14    21    27    1
    15    27    28    1
    16    27    29    1
    17    29    30    1
    18    29    31    1
    19    21    22    1
    20    22    23   ar
    21    23    24   ar
    22    24    25   ar
    23    25    26   ar
    24     6     7   ar
    25     7     8   ar
    26     8     9   ar
    27     9    10   ar
    28    13    14    1
    29    14    15   ar
    30    14    16   ar
    31    10     1   ar
    32     9     4   ar
    33    26    22   ar
