@<TRIPOS>MOLECULE
*****
 33 37 0 0 0
SMALL
GASTEIGER

@<TRIPOS>ATOM
      1 C          62.3486   88.2818   11.3445 C.ar    1  UNL1        0.2224
      2 N          62.3554   89.0304   10.0446 N.ar    1  UNL1       -0.1127
      3 N          63.2168   90.2465   10.2146 N.ar    1  UNL1       -0.1273
      4 C          63.7423   90.2496   11.6196 C.ar    1  UNL1        0.1704
      5 N          63.2057   89.0353   12.3178 N.ar    1  UNL1       -0.2796
      6 C          63.4395   88.5893   13.7308 C.3     1  UNL1        0.1574
      7 C          64.2676   89.2473   14.7944 C.3     1  UNL1        0.2299
      8 O          65.0664   90.5139   14.7077 O.3     1  UNL1       -0.4733
      9 C          65.2345   91.4353   13.5361 C.ar    1  UNL1        0.1415
     10 C          66.1223   92.5960   13.8747 C.ar    1  UNL1        0.0370
     11 C          66.4208   93.6390   12.8389 C.ar    1  UNL1        0.0031
     12 C          65.8316   93.5214   11.4645 C.ar    1  UNL1        0.0004
     13 C          64.9438   92.3607   11.1259 C.ar    1  UNL1        0.0061
     14 C          64.6453   91.3177   12.1617 C.ar    1  UNL1        0.0699
     15 C          66.1301   94.5645   10.4287 C.ar    1  UNL1        0.0031
     16 C          65.3006   95.8124   10.3601 C.ar    1  UNL1        0.0207
     17 C          65.5992   96.8555    9.3243 C.ar    1  UNL1        0.0989
     18 N          66.7272   96.6507    8.3570 N.ar    1  UNL1       -0.2423
     19 C          67.5567   95.4027    8.4256 C.ar    1  UNL1        0.0989
     20 C          67.2582   94.3597    9.4614 C.ar    1  UNL1        0.0207
     21 N          61.6135   87.0040   11.6222 N.pl3   1  UNL1       -0.2825
     22 H          60.6992   87.0312   11.9861 H       1  UNL1        0.1551
     23 C          63.0969   83.3646   12.1732 C.ar    1  UNL1        0.1480
     24 C          63.5879   83.0464   10.7920 C.ar    1  UNL1        0.0373
     25 C          63.4208   84.0476    9.6875 C.ar    1  UNL1        0.0044
     26 C          62.7627   85.3668    9.9643 C.ar    1  UNL1        0.0149
     27 C          62.2717   85.6849   11.3455 C.ar    1  UNL1        0.0535
     28 C          62.4388   84.6837   12.4499 C.ar    1  UNL1        0.0518
     29 O          63.2640   82.3634   13.2777 O.3     1  UNL1       -0.4044
     30 F          61.0572   80.4266   13.8933 F       1  UNL1       -0.1328
     31 C          62.1606   81.3950   13.5855 C.3     1  UNL1        0.5753
     32 F          61.6879   82.2864   14.6955 F       1  UNL1       -0.1328
     33 F          62.6333   80.5036   12.4755 F       1  UNL1       -0.1328
@<TRIPOS>BOND
     1    30    31    1
     2    31    32    1
     3    31    33    1
     4    31    29    1
     5    29    23    1
     6    23    24   ar
     7    24    25   ar
     8    25    26   ar
     9    26    27   ar
    10    27    21    1
    11    21     1    1
    12     1     2   ar
    13     2     3   ar
    14     3     4   ar
    15     4     5   ar
    16     5     6    1
    17     6     7    1
    18     7     8    1
    19     8     9    1
    20     9    10   ar
    21    10    11   ar
    22    11    12   ar
    23    12    15    1
    24    15    16   ar
    25    16    17   ar
    26    17    18   ar
    27    18    19   ar
    28    19    20   ar
    29    12    13   ar
    30    13    14   ar
    31    27    28   ar
    32    28    23   ar
    33     5     1   ar
    34    14     9   ar
    35    14     4    1
    36    20    15   ar
    37    21    22    1
@<TRIPOS>MOLECULE
*****
 33 37 0 0 0
SMALL
GASTEIGER

@<TRIPOS>ATOM
      1 C          63.1542   89.1130   12.3135 C.ar    1  UNL1        0.2224
      2 N          62.9249   90.4609   11.6966 N.ar    1  UNL1       -0.1127
      3 N          62.0713   90.2735   10.4775 N.ar    1  UNL1       -0.1273
      4 C          61.7730   88.8098   10.3410 C.ar    1  UNL1        0.1704
      5 N          62.4423   88.0927   11.4758 N.ar    1  UNL1       -0.2796
      6 C          62.4444   86.6244   11.7828 C.3     1  UNL1        0.1574
      7 C          61.7777   85.5107   11.0309 C.3     1  UNL1        0.2299
      8 O          60.9443   85.5903    9.7863 O.3     1  UNL1       -0.4733
      9 C          60.5716   86.8031    8.9862 C.ar    1  UNL1        0.1415
     10 C          59.7198   86.4406    7.8060 C.ar    1  UNL1        0.0370
     11 C          59.2368   87.5109    6.8727 C.ar    1  UNL1        0.0031
     12 C          59.6056   88.9437    7.1195 C.ar    1  UNL1        0.0004
     13 C          60.4575   89.3063    8.2997 C.ar    1  UNL1        0.0061
     14 C          60.9405   88.2360    9.2330 C.ar    1  UNL1        0.0699
     15 C          59.1226   90.0141    6.1861 C.ar    1  UNL1        0.0031
     16 C          57.6512   90.2354    5.9961 C.ar    1  UNL1        0.0207
     17 C          57.1682   91.3057    5.0627 C.ar    1  UNL1        0.0989
     18 N          58.1565   92.1546    4.3194 N.ar    1  UNL1       -0.2423
     19 C          59.6279   91.9333    4.5095 C.ar    1  UNL1        0.0989
     20 C          60.1109   90.8630    5.4429 C.ar    1  UNL1        0.0207
     21 N          63.9549   88.8345   13.5510 N.pl3   1  UNL1       -0.2825
     22 H          64.2583   87.9183   13.7452 H       1  UNL1        0.1551
     23 C          65.7919   91.9734   15.1393 C.ar    1  UNL1        0.1480
     24 C          64.9702   92.1869   16.3760 C.ar    1  UNL1        0.0373
     25 C          63.8101   91.2829   16.6709 C.ar    1  UNL1        0.0044
     26 C          63.4717   90.1655   15.7293 C.ar    1  UNL1        0.0149
     27 C          64.2933   89.9519   14.4927 C.ar    1  UNL1        0.0535
     28 C          65.4535   90.8559   14.1977 C.ar    1  UNL1        0.0518
     29 O          66.9520   92.8773   14.8444 O.3     1  UNL1       -0.4044
     30 F          69.4130   92.7668   16.5566 F       1  UNL1       -0.1328
     31 C          68.1824   92.8221   15.7005 C.3     1  UNL1        0.5753
     32 F          68.1696   91.3241   15.6223 F       1  UNL1       -0.1328
     33 F          68.1954   94.3200   15.7787 F       1  UNL1       -0.1328
@<TRIPOS>BOND
     1    30    31    1
     2    31    32    1
     3    31    33    1
     4    31    29    1
     5    29    23    1
     6    23    24   ar
     7    24    25   ar
     8    25    26   ar
     9    26    27   ar
    10    27    21    1
    11    21     1    1
    12     1     2   ar
    13     2     3   ar
    14     3     4   ar
    15     4     5   ar
    16     5     6    1
    17     6     7    1
    18     7     8    1
    19     8     9    1
    20     9    10   ar
    21    10    11   ar
    22    11    12   ar
    23    12    15    1
    24    15    16   ar
    25    16    17   ar
    26    17    18   ar
    27    18    19   ar
    28    19    20   ar
    29    12    13   ar
    30    13    14   ar
    31    27    28   ar
    32    28    23   ar
    33     5     1   ar
    34    14     9   ar
    35    14     4    1
    36    20    15   ar
    37    21    22    1
@<TRIPOS>MOLECULE
*****
 33 37 0 0 0
SMALL
GASTEIGER

@<TRIPOS>ATOM
      1 C          63.8599   89.6021   14.5945 C.ar    1  UNL1        0.2224
      2 N          64.0683   88.3306   15.3625 N.ar    1  UNL1       -0.1127
      3 N          63.7387   87.1820   14.4558 N.ar    1  UNL1       -0.1273
      4 C          63.3266   87.7438   13.1273 C.ar    1  UNL1        0.1704
      5 N          63.4015   89.2394   13.2132 N.ar    1  UNL1       -0.2796
      6 C          63.0904   90.2537   12.1528 C.3     1  UNL1        0.1574
      7 C          62.6276   90.0230   10.7447 C.3     1  UNL1        0.2299
      8 O          62.3615   88.7208   10.0494 O.3     1  UNL1       -0.4733
      9 C          62.4926   87.3278   10.5902 C.ar    1  UNL1        0.1415
     10 C          62.1265   86.3026    9.5583 C.ar    1  UNL1        0.0370
     11 C          62.1898   84.8425    9.8963 C.ar    1  UNL1        0.0031
     12 C          62.6193   84.4077   11.2661 C.ar    1  UNL1        0.0004
     13 C          62.9855   85.4329   12.2980 C.ar    1  UNL1        0.0061
     14 C          62.9221   86.8930   11.9600 C.ar    1  UNL1        0.0699
     15 C          62.6826   82.9476   11.6041 C.ar    1  UNL1        0.0031
     16 C          63.0737   81.9509   10.5536 C.ar    1  UNL1        0.0207
     17 C          63.1371   80.4908   10.8915 C.ar    1  UNL1        0.0989
     18 N          62.8093   80.0275   12.2800 N.ar    1  UNL1       -0.2423
     19 C          62.4181   81.0243   13.3305 C.ar    1  UNL1        0.0989
     20 C          62.3548   82.4843   12.9926 C.ar    1  UNL1        0.0207
     21 N          64.0725   90.9923   15.1164 N.pl3   1  UNL1       -0.2825
     22 H          63.3381   91.4655   15.5701 H       1  UNL1        0.1551
     23 C          67.4291   92.2956   13.4477 C.ar    1  UNL1        0.1480
     24 C          68.0677   92.9998   14.6080 C.ar    1  UNL1        0.0373
     25 C          67.3745   93.0349   15.9378 C.ar    1  UNL1        0.0044
     26 C          66.0428   92.3657   16.1072 C.ar    1  UNL1        0.0149
     27 C          65.4042   91.6614   14.9469 C.ar    1  UNL1        0.0535
     28 C          66.0974   91.6264   13.6171 C.ar    1  UNL1        0.0518
     29 O          68.1223   92.2605   12.1179 O.3     1  UNL1       -0.4044
     30 F          66.6523   93.0897    9.6376 F       1  UNL1       -0.1328
     31 C          67.3874   92.6751   10.8778 C.3     1  UNL1        0.5753
     32 F          66.8501   93.8763   11.5978 F       1  UNL1       -0.1328
     33 F          67.9246   91.4739   10.1578 F       1  UNL1       -0.1328
@<TRIPOS>BOND
     1    30    31    1
     2    31    32    1
     3    31    33    1
     4    31    29    1
     5    29    23    1
     6    23    24   ar
     7    24    25   ar
     8    25    26   ar
     9    26    27   ar
    10    27    21    1
    11    21     1    1
    12     1     2   ar
    13     2     3   ar
    14     3     4   ar
    15     4     5   ar
    16     5     6    1
    17     6     7    1
    18     7     8    1
    19     8     9    1
    20     9    10   ar
    21    10    11   ar
    22    11    12   ar
    23    12    15    1
    24    15    16   ar
    25    16    17   ar
    26    17    18   ar
    27    18    19   ar
    28    19    20   ar
    29    12    13   ar
    30    13    14   ar
    31    27    28   ar
    32    28    23   ar
    33     5     1   ar
    34    14     9   ar
    35    14     4    1
    36    20    15   ar
    37    21    22    1
@<TRIPOS>MOLECULE
*****
 33 37 0 0 0
SMALL
GASTEIGER

@<TRIPOS>ATOM
      1 C          63.5224   89.7679   12.3827 C.ar    1  UNL1        0.2224
      2 N          63.2381   91.0382   11.6372 N.ar    1  UNL1       -0.1127
      3 N          62.3266   90.7096   10.4922 N.ar    1  UNL1       -0.1273
      4 C          62.0474   89.2363   10.5300 C.ar    1  UNL1        0.1704
      5 N          62.7865   88.6544   11.6984 N.ar    1  UNL1       -0.2796
      6 C          62.8301   87.2282   12.1611 C.3     1  UNL1        0.1574
      7 C          62.1453   86.0317   11.5697 C.3     1  UNL1        0.2299
      8 O          61.2479   85.9660   10.3696 O.3     1  UNL1       -0.4733
      9 C          60.8136   87.0804    9.4644 C.ar    1  UNL1        0.1415
     10 C          59.9089   86.5820    8.3767 C.ar    1  UNL1        0.0370
     11 C          59.3600   87.5390    7.3605 C.ar    1  UNL1        0.0031
     12 C          59.7158   88.9944    7.4319 C.ar    1  UNL1        0.0004
     13 C          60.6205   89.4929    8.5195 C.ar    1  UNL1        0.0061
     14 C          61.1694   88.5359    9.5358 C.ar    1  UNL1        0.0699
     15 C          59.1668   89.9515    6.4155 C.ar    1  UNL1        0.0031
     16 C          60.1003   90.7925    5.5963 C.ar    1  UNL1        0.0207
     17 C          59.5514   91.7495    4.5800 C.ar    1  UNL1        0.0989
     18 N          58.0689   91.8654    4.3830 N.ar    1  UNL1       -0.2423
     19 C          57.1354   91.0244    5.2023 C.ar    1  UNL1        0.0989
     20 C          57.6843   90.0674    6.2186 C.ar    1  UNL1        0.0207
     21 N          64.3902   89.6347   13.5989 N.pl3   1  UNL1       -0.2825
     22 H          65.2233   90.1546   13.6685 H       1  UNL1        0.1551
     23 C          63.8844   86.3175   15.7177 C.ar    1  UNL1        0.1480
     24 C          63.1855   86.8588   16.9295 C.ar    1  UNL1        0.0373
     25 C          62.8881   88.3256   17.0310 C.ar    1  UNL1        0.0044
     26 C          63.2897   89.2509   15.9209 C.ar    1  UNL1        0.0149
     27 C          63.9886   88.7095   14.7091 C.ar    1  UNL1        0.0535
     28 C          64.2860   87.2427   14.6076 C.ar    1  UNL1        0.0518
     29 O          64.1818   84.8507   15.6162 O.3     1  UNL1       -0.4044
     30 F          64.4668   83.5608   12.9227 F       1  UNL1       -0.1328
     31 C          64.3243   84.2058   14.2695 C.3     1  UNL1        0.5753
     32 F          62.8364   84.0303   14.1960 F       1  UNL1       -0.1328
     33 F          65.8122   84.3812   14.3429 F       1  UNL1       -0.1328
@<TRIPOS>BOND
     1    30    31    1
     2    31    32    1
     3    31    33    1
     4    31    29    1
     5    29    23    1
     6    23    24   ar
     7    24    25   ar
     8    25    26   ar
     9    26    27   ar
    10    27    21    1
    11    21     1    1
    12     1     2   ar
    13     2     3   ar
    14     3     4   ar
    15     4     5   ar
    16     5     6    1
    17     6     7    1
    18     7     8    1
    19     8     9    1
    20     9    10   ar
    21    10    11   ar
    22    11    12   ar
    23    12    15    1
    24    15    16   ar
    25    16    17   ar
    26    17    18   ar
    27    18    19   ar
    28    19    20   ar
    29    12    13   ar
    30    13    14   ar
    31    27    28   ar
    32    28    23   ar
    33     5     1   ar
    34    14     9   ar
    35    14     4    1
    36    20    15   ar
    37    21    22    1
@<TRIPOS>MOLECULE
*****
 33 37 0 0 0
SMALL
GASTEIGER

@<TRIPOS>ATOM
      1 C          62.7057   89.1017   11.3693 C.ar    1  UNL1        0.2224
      2 N          62.2688   88.1284   10.3148 N.ar    1  UNL1       -0.1127
      3 N          62.5061   86.7423   10.8365 N.ar    1  UNL1       -0.1273
      4 C          63.0897   86.8589   12.2134 C.ar    1  UNL1        0.1704
      5 N          63.2131   88.3171   12.5426 N.ar    1  UNL1       -0.2796
      6 C          63.7384   88.9516   13.7962 C.3     1  UNL1        0.1574
      7 C          64.2702   88.2847   15.0301 C.3     1  UNL1        0.2299
      8 O          64.4079   86.8185   15.3151 O.3     1  UNL1       -0.4733
      9 C          64.0479   85.6571   14.4368 C.ar    1  UNL1        0.1415
     10 C          64.3475   84.3493   15.1074 C.ar    1  UNL1        0.0370
     11 C          64.0606   83.0594   14.3976 C.ar    1  UNL1        0.0031
     12 C          63.4739   83.0773   13.0172 C.ar    1  UNL1        0.0004
     13 C          63.1742   84.3852   12.3466 C.ar    1  UNL1        0.0061
     14 C          63.4612   85.6750   13.0564 C.ar    1  UNL1        0.0699
     15 C          63.1869   81.7874   12.3074 C.ar    1  UNL1        0.0031
     16 C          63.3389   81.7012   10.8177 C.ar    1  UNL1        0.0207
     17 C          63.0519   80.4112   10.1079 C.ar    1  UNL1        0.0989
     18 N          62.6130   79.2075   10.8879 N.ar    1  UNL1       -0.2423
     19 C          62.4611   79.2938   12.3778 C.ar    1  UNL1        0.0989
     20 C          62.7481   80.5837   13.0875 C.ar    1  UNL1        0.0207
     21 N          62.6458   90.5971   11.2680 N.pl3   1  UNL1       -0.2825
     22 H          61.8040   91.0400   11.0142 H       1  UNL1        0.1551
     23 C          65.8816   92.8252   10.7070 C.ar    1  UNL1        0.1480
     24 C          66.3140   93.0591   12.1242 C.ar    1  UNL1        0.0373
     25 C          65.5236   92.4722   13.2560 C.ar    1  UNL1        0.0044
     26 C          64.3009   91.6516   12.9706 C.ar    1  UNL1        0.0149
     27 C          63.8685   91.4177   11.5534 C.ar    1  UNL1        0.0535
     28 C          64.6589   92.0046   10.4216 C.ar    1  UNL1        0.0518
     29 O          66.6720   93.4121    9.5752 O.3     1  UNL1       -0.4044
     30 F          69.5741   92.7221    9.2559 F       1  UNL1       -0.1328
     31 C          68.1230   93.0671    9.4156 C.3     1  UNL1        0.5753
     32 F          68.4521   94.5224    9.2615 F       1  UNL1       -0.1328
     33 F          67.7939   91.6118    9.5696 F       1  UNL1       -0.1328
@<TRIPOS>BOND
     1    30    31    1
     2    31    32    1
     3    31    33    1
     4    31    29    1
     5    29    23    1
     6    23    24   ar
     7    24    25   ar
     8    25    26   ar
     9    26    27   ar
    10    27    21    1
    11    21     1    1
    12     1     2   ar
    13     2     3   ar
    14     3     4   ar
    15     4     5   ar
    16     5     6    1
    17     6     7    1
    18     7     8    1
    19     8     9    1
    20     9    10   ar
    21    10    11   ar
    22    11    12   ar
    23    12    15    1
    24    15    16   ar
    25    16    17   ar
    26    17    18   ar
    27    18    19   ar
    28    19    20   ar
    29    12    13   ar
    30    13    14   ar
    31    27    28   ar
    32    28    23   ar
    33     5     1   ar
    34    14     9   ar
    35    14     4    1
    36    20    15   ar
    37    21    22    1
@<TRIPOS>MOLECULE
*****
 33 37 0 0 0
SMALL
GASTEIGER

@<TRIPOS>ATOM
      1 C          62.7685   89.3239   11.4012 C.ar    1  UNL1        0.2224
      2 N          62.3463   88.3333   10.3569 N.ar    1  UNL1       -0.1127
      3 N          62.5699   86.9560   10.9073 N.ar    1  UNL1       -0.1273
      4 C          63.1302   87.0954   12.2917 C.ar    1  UNL1        0.1704
      5 N          63.2530   88.5589   12.5969 N.ar    1  UNL1       -0.2796
      6 C          63.7590   89.2141   13.8478 C.3     1  UNL1        0.1574
      7 C          64.2672   88.5677   15.1024 C.3     1  UNL1        0.2299
      8 O          64.3949   87.1064   15.4158 O.3     1  UNL1       -0.4733
      9 C          64.0460   85.9306   14.5523 C.ar    1  UNL1        0.1415
     10 C          64.3296   84.6341   15.2512 C.ar    1  UNL1        0.0370
     11 C          64.0504   83.3326   14.5597 C.ar    1  UNL1        0.0031
     12 C          63.4876   83.3277   13.1693 C.ar    1  UNL1        0.0004
     13 C          63.2039   84.6242   12.4704 C.ar    1  UNL1        0.0061
     14 C          63.4832   85.9257   13.1619 C.ar    1  UNL1        0.0699
     15 C          63.2084   82.0261   12.4779 C.ar    1  UNL1        0.0031
     16 C          62.7789   80.8303   13.2751 C.ar    1  UNL1        0.0207
     17 C          62.4997   79.5288   12.5836 C.ar    1  UNL1        0.0989
     18 N          62.6500   79.4231   11.0949 N.ar    1  UNL1       -0.2423
     19 C          63.0794   80.6190   10.2977 C.ar    1  UNL1        0.0989
     20 C          63.3586   81.9205   10.9891 C.ar    1  UNL1        0.0207
     21 N          62.7155   90.8175   11.2723 N.pl3   1  UNL1       -0.2825
     22 H          61.8682   91.2618   11.0400 H       1  UNL1        0.1551
     23 C          65.6333   92.7736   13.1187 C.ar    1  UNL1        0.1480
     24 C          66.4293   93.2674   11.9471 C.ar    1  UNL1        0.0373
     25 C          65.9872   92.9445   10.5505 C.ar    1  UNL1        0.0044
     26 C          64.7493   92.1279   10.3256 C.ar    1  UNL1        0.0149
     27 C          63.9534   91.6341   11.4972 C.ar    1  UNL1        0.0535
     28 C          64.3954   91.9570   12.8938 C.ar    1  UNL1        0.0518
     29 O          66.0754   93.0964   14.5153 O.3     1  UNL1       -0.4044
     30 F          68.6916   92.0460   15.5412 F       1  UNL1       -0.1328
     31 C          67.3834   92.5713   15.0282 C.3     1  UNL1        0.5753
     32 F          66.9514   91.1731   14.6985 F       1  UNL1       -0.1328
     33 F          67.8155   93.9693   15.3580 F       1  UNL1       -0.1328
@<TRIPOS>BOND
     1    30    31    1
     2    31    32    1
     3    31    33    1
     4    31    29    1
     5    29    23    1
     6    23    24   ar
     7    24    25   ar
     8    25    26   ar
     9    26    27   ar
    10    27    21    1
    11    21     1    1
    12     1     2   ar
    13     2     3   ar
    14     3     4   ar
    15     4     5   ar
    16     5     6    1
    17     6     7    1
    18     7     8    1
    19     8     9    1
    20     9    10   ar
    21    10    11   ar
    22    11    12   ar
    23    12    15    1
    24    15    16   ar
    25    16    17   ar
    26    17    18   ar
    27    18    19   ar
    28    19    20   ar
    29    12    13   ar
    30    13    14   ar
    31    27    28   ar
    32    28    23   ar
    33     5     1   ar
    34    14     9   ar
    35    14     4    1
    36    20    15   ar
    37    21    22    1
@<TRIPOS>MOLECULE
*****
 33 37 0 0 0
SMALL
GASTEIGER

@<TRIPOS>ATOM
      1 C          63.8031   90.1995   14.0611 C.ar    1  UNL1        0.2224
      2 N          63.2732   90.6306   12.7257 N.ar    1  UNL1       -0.1127
      3 N          62.9619   89.3974   11.9305 N.ar    1  UNL1       -0.1273
      4 C          63.2994   88.2042   12.7745 C.ar    1  UNL1        0.1704
      5 N          63.8192   88.7000   14.0913 N.ar    1  UNL1       -0.2796
      6 C          64.2888   87.9022   15.2716 C.3     1  UNL1        0.1574
      7 C          64.3544   86.4116   15.4266 C.3     1  UNL1        0.2299
      8 O          63.9667   85.3508   14.4396 O.3     1  UNL1       -0.4733
      9 C          63.4176   85.5183   13.0537 C.ar    1  UNL1        0.1415
     10 C          63.1630   84.1920   12.4011 C.ar    1  UNL1        0.0370
     11 C          62.6114   84.1357   11.0073 C.ar    1  UNL1        0.0031
     12 C          62.3144   85.4056   10.2663 C.ar    1  UNL1        0.0004
     13 C          62.5690   86.7319   10.9190 C.ar    1  UNL1        0.0061
     14 C          63.1206   86.7883   12.3127 C.ar    1  UNL1        0.0699
     15 C          61.7628   85.3491    8.8725 C.ar    1  UNL1        0.0031
     16 C          60.4263   85.9589    8.5696 C.ar    1  UNL1        0.0207
     17 C          59.8747   85.9025    7.1757 C.ar    1  UNL1        0.0989
     18 N          60.6596   85.2362    6.0849 N.ar    1  UNL1       -0.2423
     19 C          61.9962   84.6264    6.3879 C.ar    1  UNL1        0.0989
     20 C          62.5477   84.6828    7.7817 C.ar    1  UNL1        0.0207
     21 N          64.2400   91.1085   15.1715 N.pl3   1  UNL1       -0.2825
     22 H          63.6386   91.2815   15.9315 H       1  UNL1        0.1551
     23 C          67.7710   92.3211   13.8256 C.ar    1  UNL1        0.1480
     24 C          68.2998   93.0445   15.0285 C.ar    1  UNL1        0.0373
     25 C          67.4752   93.1226   16.2792 C.ar    1  UNL1        0.0044
     26 C          66.1220   92.4772   16.3268 C.ar    1  UNL1        0.0149
     27 C          65.5932   91.7538   15.1238 C.ar    1  UNL1        0.0535
     28 C          66.4178   91.6757   13.8732 C.ar    1  UNL1        0.0518
     29 O          68.5956   92.2430   12.5749 O.3     1  UNL1       -0.4044
     30 F          67.2749   92.4694    9.8908 F       1  UNL1       -0.1328
     31 C          67.9353   92.3562   11.2329 C.3     1  UNL1        0.5753
     32 F          68.7228   91.1761   10.7458 F       1  UNL1       -0.1328
     33 F          67.1477   93.5362   11.7199 F       1  UNL1       -0.1328
@<TRIPOS>BOND
     1    30    31    1
     2    31    32    1
     3    31    33    1
     4    31    29    1
     5    29    23    1
     6    23    24   ar
     7    24    25   ar
     8    25    26   ar
     9    26    27   ar
    10    27    21    1
    11    21     1    1
    12     1     2   ar
    13     2     3   ar
    14     3     4   ar
    15     4     5   ar
    16     5     6    1
    17     6     7    1
    18     7     8    1
    19     8     9    1
    20     9    10   ar
    21    10    11   ar
    22    11    12   ar
    23    12    15    1
    24    15    16   ar
    25    16    17   ar
    26    17    18   ar
    27    18    19   ar
    28    19    20   ar
    29    12    13   ar
    30    13    14   ar
    31    27    28   ar
    32    28    23   ar
    33     5     1   ar
    34    14     9   ar
    35    14     4    1
    36    20    15   ar
    37    21    22    1
@<TRIPOS>MOLECULE
*****
 33 37 0 0 0
SMALL
GASTEIGER

@<TRIPOS>ATOM
      1 C          58.9519   88.4591    7.4687 C.ar    1  UNL1        0.2224
      2 N          58.9909   86.9833    7.2037 N.ar    1  UNL1       -0.1127
      3 N          59.8991   86.3539    8.2182 N.ar    1  UNL1       -0.1273
      4 C          60.4214   87.4409    9.1102 C.ar    1  UNL1        0.1704
      5 N          59.8360   88.7420    8.6470 N.ar    1  UNL1       -0.2796
      6 C          60.0491   90.1162    9.2092 C.3     1  UNL1        0.1574
      7 C          60.9002   90.5288   10.3734 C.3     1  UNL1        0.2299
      8 O          61.7484   89.6690   11.2630 O.3     1  UNL1       -0.4733
      9 C          61.9550   88.1843   11.2081 C.ar    1  UNL1        0.1415
     10 C          62.8870   87.7204   12.2879 C.ar    1  UNL1        0.0370
     11 C          63.2285   86.2649   12.4096 C.ar    1  UNL1        0.0031
     12 C          62.6379   85.2733   11.4516 C.ar    1  UNL1        0.0004
     13 C          61.7059   85.7372   10.3717 C.ar    1  UNL1        0.0061
     14 C          61.3644   87.1927   10.2500 C.ar    1  UNL1        0.0699
     15 C          62.9793   83.8177   11.5734 C.ar    1  UNL1        0.0031
     16 C          62.7454   83.0983   12.8686 C.ar    1  UNL1        0.0207
     17 C          63.0869   81.6427   12.9904 C.ar    1  UNL1        0.0989
     18 N          63.6623   80.9066   11.8169 N.ar    1  UNL1       -0.2423
     19 C          63.8962   81.6261   10.5216 C.ar    1  UNL1        0.0989
     20 C          63.5547   83.0816   10.3999 C.ar    1  UNL1        0.0207
     21 N          58.1667   89.4740    6.6919 N.pl3   1  UNL1       -0.2825
     22 H          57.1911   89.5359    6.8084 H       1  UNL1        0.1551
     23 C          61.0567   91.2265    4.6119 C.ar    1  UNL1        0.1480
     24 C          60.2703   92.2353    3.8284 C.ar    1  UNL1        0.0373
     25 C          58.7827   92.3236    3.9993 C.ar    1  UNL1        0.0044
     26 C          58.0815   91.4032    4.9538 C.ar    1  UNL1        0.0149
     27 C          58.8679   90.3944    5.7374 C.ar    1  UNL1        0.0535
     28 C          60.3555   90.3061    5.5664 C.ar    1  UNL1        0.0518
     29 O          62.5443   91.1382    4.4410 O.3     1  UNL1       -0.4044
     30 F          63.7670   91.5098    1.7267 F       1  UNL1       -0.1328
     31 C          63.1556   91.3240    3.0839 C.3     1  UNL1        0.5753
     32 F          63.1958   89.8361    2.8982 F       1  UNL1       -0.1328
     33 F          63.1156   92.8120    3.2695 F       1  UNL1       -0.1328
@<TRIPOS>BOND
     1    30    31    1
     2    31    32    1
     3    31    33    1
     4    31    29    1
     5    29    23    1
     6    23    24   ar
     7    24    25   ar
     8    25    26   ar
     9    26    27   ar
    10    27    21    1
    11    21     1    1
    12     1     2   ar
    13     2     3   ar
    14     3     4   ar
    15     4     5   ar
    16     5     6    1
    17     6     7    1
    18     7     8    1
    19     8     9    1
    20     9    10   ar
    21    10    11   ar
    22    11    12   ar
    23    12    15    1
    24    15    16   ar
    25    16    17   ar
    26    17    18   ar
    27    18    19   ar
    28    19    20   ar
    29    12    13   ar
    30    13    14   ar
    31    27    28   ar
    32    28    23   ar
    33     5     1   ar
    34    14     9   ar
    35    14     4    1
    36    20    15   ar
    37    21    22    1
