@<TRIPOS>MOLECULE
*****
 37 40 0 0 0
SMALL
GASTEIGER

@<TRIPOS>ATOM
      1 C          63.0819   87.4188   12.3064 C.ar    1  UNL1        0.1391
      2 C          63.2338   85.9613   12.6269 C.ar    1  UNL1        0.0733
      3 C          62.5258   84.9329   11.7956 C.ar    1  UNL1        0.1679
      4 N          61.6660   85.3619   10.6437 N.ar    1  UNL1       -0.2047
      5 C          61.5142   86.8194   10.3232 C.ar    1  UNL1        0.2001
      6 N          62.2222   87.8478   11.1546 N.ar    1  UNL1       -0.2088
      7 N          62.6776   83.4754   12.1161 N.ar    1  UNL1       -0.2164
      8 N          62.0599   82.7597   13.2807 N.ar    1  UNL1       -0.1684
      9 C          62.4742   81.3197   13.2126 C.ar    1  UNL1        0.0805
     10 C          62.0834   80.2431   14.1812 C.3     1  UNL1        0.0540
     11 C          63.3481   81.1454   12.0059 C.ar    1  UNL1        0.0312
     12 C          63.4737   82.4777   11.3283 C.ar    1  UNL1        0.0637
     13 C          64.2579   82.7623   10.0816 C.3     1  UNL1        0.0522
     14 C          60.6544   87.2485    9.1714 C.ar    1  UNL1        0.1805
     15 C          59.7343   86.3659    8.3812 C.ar    1  UNL1        0.0434
     16 C          59.0751   87.2074    7.3290 C.ar    1  UNL1        0.0362
     17 C          59.5878   88.6102    7.4688 C.ar    1  UNL1        0.1234
     18 C          59.1936   89.7818    6.6192 C.3     1  UNL1        0.0725
     19 O          60.5639   88.6355    8.6075 O.2     1  UNL1       -0.4546
     20 C          63.0929   89.7235   13.5057 C.2     1  UNL1        0.2717
     21 O          61.6879   89.9713   13.0423 O.2     1  UNL1       -0.2707
     22 N          63.7899   88.4473   13.1377 N.am    1  UNL1       -0.2662
     23 H          64.7120   88.2846   13.4418 H       1  UNL1        0.1564
     24 C          63.8008   90.7520   14.3370 C.3     1  UNL1        0.2897
     25 O          65.1937   91.1773   13.9779 O.3     1  UNL1       -0.4659
     26 C          65.8503   94.2144   10.7229 C.ar    1  UNL1        0.1387
     27 C          65.0728   92.9641   10.4364 C.ar    1  UNL1        0.0400
     28 C          64.8539   91.9517   11.5214 C.ar    1  UNL1        0.0397
     29 C          65.4126   92.1896   12.8929 C.ar    1  UNL1        0.1368
     30 C          66.1901   93.4399   13.1795 C.ar    1  UNL1        0.0309
     31 C          66.4089   94.4523   12.0945 C.ar    1  UNL1        0.0370
     32 C          67.2662   95.1176    8.7407 C.3     1  UNL1        0.2525
     33 O          66.0692   95.2267    9.6380 O.3     1  UNL1       -0.4714
     34 C          66.7487   93.6779   14.5512 C.3     1  UNL1        0.1023
     35 N          68.1312   93.2050   14.8903 N.3     1  UNL1       -0.2664
     36 C          68.8969   93.8611   16.0009 C.3     1  UNL1        0.0899
     37 C          68.7480   92.0761   14.1190 C.3     1  UNL1        0.0899
@<TRIPOS>BOND
     1    32    33    1
     2    33    26    1
     3    26    27   ar
     4    27    28   ar
     5    28    29   ar
     6    29    25    1
     7    25    24    1
     8    24    20    1
     9    20    21    2
    10    20    22   am
    11    22     1    1
    12     1     2   ar
    13     2     3   ar
    14     3     7    1
    15     7     8   ar
    16     8     9   ar
    17     9    10    1
    18     9    11   ar
    19    11    12   ar
    20    12    13    1
    21     3     4   ar
    22     4     5   ar
    23     5    14    1
    24    14    15   ar
    25    15    16   ar
    26    16    17   ar
    27    17    18    1
    28    17    19   ar
    29     5     6   ar
    30    29    30   ar
    31    30    34    1
    32    34    35    1
    33    35    36    1
    34    35    37    1
    35    30    31   ar
    36    31    26   ar
    37     6     1   ar
    38    12     7   ar
    39    19    14   ar
    40    22    23    1
@<TRIPOS>MOLECULE
*****
 37 40 0 0 0
SMALL
GASTEIGER

@<TRIPOS>ATOM
      1 C          63.2027   87.8508   12.3843 C.ar    1  UNL1        0.1391
      2 C          62.4250   88.1428   11.1352 C.ar    1  UNL1        0.0733
      3 C          61.6713   87.0437   10.4469 C.ar    1  UNL1        0.1679
      4 N          61.6952   85.6526   11.0076 N.ar    1  UNL1       -0.2047
      5 C          62.4728   85.3607   12.2566 C.ar    1  UNL1        0.2001
      6 N          63.2266   86.4598   12.9449 N.ar    1  UNL1       -0.2088
      7 N          60.8936   87.3356    9.1979 N.ar    1  UNL1       -0.2164
      8 N          60.1013   88.5793    8.9230 N.ar    1  UNL1       -0.1684
      9 C          59.4897   88.4475    7.5597 C.ar    1  UNL1        0.0805
     10 C          58.6171   89.4626    6.8829 C.3     1  UNL1        0.0540
     11 C          59.9040   87.1222    6.9921 C.ar    1  UNL1        0.0312
     12 C          60.7717   86.4351    8.0045 C.ar    1  UNL1        0.0637
     13 C          61.4060   85.0846    7.8506 C.3     1  UNL1        0.0522
     14 C          62.4968   83.9696   12.8173 C.ar    1  UNL1        0.1805
     15 C          62.5074   83.6055   14.2724 C.ar    1  UNL1        0.0434
     16 C          62.5314   82.1093   14.3757 C.ar    1  UNL1        0.0362
     17 C          62.5357   81.5486   12.9844 C.ar    1  UNL1        0.1234
     18 C          62.5576   80.0936   12.6203 C.3     1  UNL1        0.0725
     19 O          62.5143   82.6984   12.0212 O.2     1  UNL1       -0.4546
     20 C          63.2385   89.8850   14.0001 C.2     1  UNL1        0.2717
     21 O          61.7668   89.7209   14.2393 O.2     1  UNL1       -0.2707
     22 N          63.9565   88.9500   13.0726 N.am    1  UNL1       -0.2662
     23 H          64.9224   89.0577   12.9156 H       1  UNL1        0.1564
     24 C          63.9923   90.9841   14.6884 C.3     1  UNL1        0.2897
     25 O          65.3735   91.3475   14.2301 O.3     1  UNL1       -0.4659
     26 C          65.9263   94.1996   10.7935 C.ar    1  UNL1        0.1387
     27 C          65.1482   92.9322   10.5986 C.ar    1  UNL1        0.0400
     28 C          64.9639   91.9815   11.7441 C.ar    1  UNL1        0.0397
     29 C          65.5577   92.2982   13.0846 C.ar    1  UNL1        0.1368
     30 C          66.3358   93.5657   13.2795 C.ar    1  UNL1        0.0309
     31 C          66.5201   94.5164   12.1340 C.ar    1  UNL1        0.0370
     32 C          67.4690   95.3383    9.0405 C.3     1  UNL1        0.2525
     33 O          66.1105   95.1503    9.6480 O.3     1  UNL1       -0.4714
     34 C          66.9297   93.8825   14.6201 C.3     1  UNL1        0.1023
     35 N          68.2864   93.3555   14.9828 N.3     1  UNL1       -0.2664
     36 C          68.8393   92.1553   14.2729 C.3     1  UNL1        0.0899
     37 C          69.0904   94.0288   16.0554 C.3     1  UNL1        0.0899
@<TRIPOS>BOND
     1    32    33    1
     2    33    26    1
     3    26    27   ar
     4    27    28   ar
     5    28    29   ar
     6    29    25    1
     7    25    24    1
     8    24    20    1
     9    20    21    2
    10    20    22   am
    11    22     1    1
    12     1     2   ar
    13     2     3   ar
    14     3     7    1
    15     7     8   ar
    16     8     9   ar
    17     9    10    1
    18     9    11   ar
    19    11    12   ar
    20    12    13    1
    21     3     4   ar
    22     4     5   ar
    23     5    14    1
    24    14    15   ar
    25    15    16   ar
    26    16    17   ar
    27    17    18    1
    28    17    19   ar
    29     5     6   ar
    30    29    30   ar
    31    30    34    1
    32    34    35    1
    33    35    36    1
    34    35    37    1
    35    30    31   ar
    36    31    26   ar
    37     6     1   ar
    38    12     7   ar
    39    19    14   ar
    40    22    23    1
@<TRIPOS>MOLECULE
*****
 37 40 0 0 0
SMALL
GASTEIGER

@<TRIPOS>ATOM
      1 C          63.7687   88.0710   13.2998 C.ar    1  UNL1        0.1391
      2 C          62.9127   88.4352   12.1230 C.ar    1  UNL1        0.0733
      3 C          62.1501   87.3702   11.3921 C.ar    1  UNL1        0.1679
      4 N          62.2436   85.9410   11.8379 N.ar    1  UNL1       -0.2047
      5 C          63.0996   85.5768   13.0146 C.ar    1  UNL1        0.2001
      6 N          63.8621   86.6418   13.7455 N.ar    1  UNL1       -0.2088
      7 N          61.2942   87.7343   10.2154 N.ar    1  UNL1       -0.2164
      8 N          60.4662   86.7857    9.4002 N.ar    1  UNL1       -0.1684
      9 C          59.7761   87.5761    8.3283 C.ar    1  UNL1        0.0805
     10 C          58.8476   87.0260    7.2866 C.3     1  UNL1        0.0540
     11 C          60.1777   89.0133    8.4810 C.ar    1  UNL1        0.0312
     12 C          61.1159   89.1111    9.6473 C.ar    1  UNL1        0.0637
     13 C          61.7623   90.3654   10.1561 C.3     1  UNL1        0.0522
     14 C          63.1930   84.1476   13.4604 C.ar    1  UNL1        0.1805
     15 C          63.9972   83.6361   14.6187 C.ar    1  UNL1        0.0434
     16 C          63.7999   82.1514   14.7003 C.ar    1  UNL1        0.0362
     17 C          62.8737   81.7452   13.5924 C.ar    1  UNL1        0.1234
     18 C          62.4049   80.3503   13.3019 C.3     1  UNL1        0.0725
     19 O          62.4986   82.9791   12.8261 O.2     1  UNL1       -0.4546
     20 C          63.8169   90.0532   14.9787 C.2     1  UNL1        0.2717
     21 O          62.3401   89.9053   15.1957 O.2     1  UNL1       -0.2707
     22 N          64.5313   89.1360   14.0308 N.am    1  UNL1       -0.2662
     23 H          65.5006   89.2330   13.8883 H       1  UNL1        0.1564
     24 C          64.5795   91.1182   15.7097 C.3     1  UNL1        0.2897
     25 O          64.9993   92.3665   14.9919 O.3     1  UNL1       -0.4659
     26 C          67.4217   92.0809   11.2103 C.ar    1  UNL1        0.1387
     27 C          65.9775   92.4813   11.1474 C.ar    1  UNL1        0.0400
     28 C          65.1701   92.5765   12.4079 C.ar    1  UNL1        0.0397
     29 C          65.8068   92.2713   13.7313 C.ar    1  UNL1        0.1368
     30 C          67.2510   91.8710   13.7942 C.ar    1  UNL1        0.0309
     31 C          68.0584   91.7758   12.5337 C.ar    1  UNL1        0.0370
     32 C          68.2108   93.1130    8.9604 C.3     1  UNL1        0.2525
     33 O          68.2292   91.9857    9.9497 O.3     1  UNL1       -0.4714
     34 C          67.8878   91.5657   15.1176 C.3     1  UNL1        0.1023
     35 N          68.6701   92.6252   15.8356 N.3     1  UNL1       -0.2664
     36 C          68.2707   94.0658   15.7120 C.3     1  UNL1        0.0899
     37 C          69.8518   92.2441   16.6773 C.3     1  UNL1        0.0899
@<TRIPOS>BOND
     1    32    33    1
     2    33    26    1
     3    26    27   ar
     4    27    28   ar
     5    28    29   ar
     6    29    25    1
     7    25    24    1
     8    24    20    1
     9    20    21    2
    10    20    22   am
    11    22     1    1
    12     1     2   ar
    13     2     3   ar
    14     3     7    1
    15     7     8   ar
    16     8     9   ar
    17     9    10    1
    18     9    11   ar
    19    11    12   ar
    20    12    13    1
    21     3     4   ar
    22     4     5   ar
    23     5    14    1
    24    14    15   ar
    25    15    16   ar
    26    16    17   ar
    27    17    18    1
    28    17    19   ar
    29     5     6   ar
    30    29    30   ar
    31    30    34    1
    32    34    35    1
    33    35    36    1
    34    35    37    1
    35    30    31   ar
    36    31    26   ar
    37     6     1   ar
    38    12     7   ar
    39    19    14   ar
    40    22    23    1
@<TRIPOS>MOLECULE
*****
 37 40 0 0 0
SMALL
GASTEIGER

@<TRIPOS>ATOM
      1 C          62.8491   87.4369   11.9899 C.ar    1  UNL1        0.1391
      2 C          62.3998   87.2502   10.5709 C.ar    1  UNL1        0.0733
      3 C          62.1581   85.8697   10.0362 C.ar    1  UNL1        0.1679
      4 N          62.3655   84.6760   10.9205 N.ar    1  UNL1       -0.2047
      5 C          62.8148   84.8627   12.3394 C.ar    1  UNL1        0.2001
      6 N          63.0565   86.2431   12.8741 N.ar    1  UNL1       -0.2088
      7 N          61.7088   85.6830    8.6173 N.ar    1  UNL1       -0.2164
      8 N          62.4275   84.8969    7.5611 N.ar    1  UNL1       -0.1684
      9 C          61.6249   84.9777    6.2965 C.ar    1  UNL1        0.0805
     10 C          61.9755   84.3352    4.9872 C.3     1  UNL1        0.0540
     11 C          60.4101   85.8137    6.5712 C.ar    1  UNL1        0.0312
     12 C          60.4620   86.2496    8.0055 C.ar    1  UNL1        0.0637
     13 C          59.4455   87.1024    8.7051 C.3     1  UNL1        0.0522
     14 C          63.0223   83.6689   13.2237 C.ar    1  UNL1        0.1805
     15 C          63.5900   83.6880   14.6120 C.ar    1  UNL1        0.0434
     16 C          63.6171   82.2774   15.1212 C.ar    1  UNL1        0.0362
     17 C          63.0660   81.3864   14.0477 C.ar    1  UNL1        0.1234
     18 C          62.9099   79.8969   14.1320 C.3     1  UNL1        0.0725
     19 O          62.6984   82.2464   12.8749 O.2     1  UNL1       -0.4546
     20 C          63.7293   88.9995   13.8696 C.2     1  UNL1        0.2717
     21 O          64.1260   87.8012   14.6800 O.2     1  UNL1       -0.2707
     22 N          63.0909   88.8174   12.5245 N.am    1  UNL1       -0.2662
     23 H          62.8305   89.6038   11.9926 H       1  UNL1        0.1564
     24 C          63.9711   90.3800   14.4043 C.3     1  UNL1        0.2897
     25 O          63.8389   91.5687   13.4991 O.3     1  UNL1       -0.4659
     26 C          67.2640   92.7593   10.8342 C.ar    1  UNL1        0.1387
     27 C          65.8585   92.7985   10.3118 C.ar    1  UNL1        0.0400
     28 C          64.7168   92.4016   11.2000 C.ar    1  UNL1        0.0397
     29 C          64.9806   91.9656   12.6108 C.ar    1  UNL1        0.1368
     30 C          66.3861   91.9264   13.1333 C.ar    1  UNL1        0.0309
     31 C          67.5278   92.3233   12.2450 C.ar    1  UNL1        0.0370
     32 C          68.7929   92.2851    8.7880 C.3     1  UNL1        0.2525
     33 O          68.4057   93.1562    9.9460 O.3     1  UNL1       -0.4714
     34 C          66.6500   91.4904   14.5441 C.3     1  UNL1        0.1023
     35 N          66.6794   92.5041   15.6493 N.3     1  UNL1       -0.2664
     36 C          65.5173   92.6214   16.5905 C.3     1  UNL1        0.0899
     37 C          67.8708   93.4005   15.8134 C.3     1  UNL1        0.0899
@<TRIPOS>BOND
     1    32    33    1
     2    33    26    1
     3    26    27   ar
     4    27    28   ar
     5    28    29   ar
     6    29    25    1
     7    25    24    1
     8    24    20    1
     9    20    21    2
    10    20    22   am
    11    22     1    1
    12     1     2   ar
    13     2     3   ar
    14     3     7    1
    15     7     8   ar
    16     8     9   ar
    17     9    10    1
    18     9    11   ar
    19    11    12   ar
    20    12    13    1
    21     3     4   ar
    22     4     5   ar
    23     5    14    1
    24    14    15   ar
    25    15    16   ar
    26    16    17   ar
    27    17    18    1
    28    17    19   ar
    29     5     6   ar
    30    29    30   ar
    31    30    34    1
    32    34    35    1
    33    35    36    1
    34    35    37    1
    35    30    31   ar
    36    31    26   ar
    37     6     1   ar
    38    12     7   ar
    39    19    14   ar
    40    22    23    1
@<TRIPOS>MOLECULE
*****
 37 40 0 0 0
SMALL
GASTEIGER

@<TRIPOS>ATOM
      1 C          63.0946   90.3710   12.6098 C.ar    1  UNL1        0.1391
      2 C          63.0269   89.0099   13.2368 C.ar    1  UNL1        0.0733
      3 C          64.0276   88.6151   14.2821 C.ar    1  UNL1        0.1679
      4 N          65.0960   89.5813   14.7004 N.ar    1  UNL1       -0.2047
      5 C          65.1637   90.9423   14.0735 C.ar    1  UNL1        0.2001
      6 N          64.1630   91.3371   13.0282 N.ar    1  UNL1       -0.2088
      7 N          63.9600   87.2541   14.9090 N.ar    1  UNL1       -0.2164
      8 N          64.3520   85.9619   14.2558 N.ar    1  UNL1       -0.1684
      9 C          64.1227   84.8555   15.2424 C.ar    1  UNL1        0.0805
     10 C          64.3818   83.3969   15.0073 C.3     1  UNL1        0.0540
     11 C          63.5889   85.4639   16.5053 C.ar    1  UNL1        0.0312
     12 C          63.4884   86.9463   16.2993 C.ar    1  UNL1        0.0637
     13 C          63.0016   87.9454   17.3067 C.3     1  UNL1        0.0522
     14 C          66.2321   91.9085   14.4918 C.ar    1  UNL1        0.1805
     15 C          66.2591   93.3778   14.1909 C.ar    1  UNL1        0.0434
     16 C          67.5047   93.9524   14.7977 C.ar    1  UNL1        0.0362
     17 C          68.2477   92.8383   15.4736 C.ar    1  UNL1        0.1234
     18 C          69.5486   92.9651   16.2093 C.3     1  UNL1        0.0725
     19 O          67.4611   91.5750   15.2846 O.2     1  UNL1       -0.4546
     20 C          60.6810   90.2699   11.6536 C.2     1  UNL1        0.2717
     21 O          60.2688   89.3793   12.7880 O.2     1  UNL1       -0.2707
     22 N          62.0939   90.7658   11.5645 N.am    1  UNL1       -0.2662
     23 H          62.3644   91.3503   10.8200 H       1  UNL1        0.1564
     24 C          59.6802   90.6647   10.6083 C.3     1  UNL1        0.2897
     25 O          59.9806   90.4331    9.1571 O.3     1  UNL1       -0.4659
     26 C          60.3870   86.2361    7.5854 C.ar    1  UNL1        0.1387
     27 C          61.1865   86.6712    8.7777 C.ar    1  UNL1        0.0400
     28 C          61.0510   88.0702    9.3015 C.ar    1  UNL1        0.0397
     29 C          60.1160   89.0341    8.6332 C.ar    1  UNL1        0.1368
     30 C          59.3166   88.5990    7.4410 C.ar    1  UNL1        0.0309
     31 C          59.4520   87.2000    6.9171 C.ar    1  UNL1        0.0370
     32 C          61.6913   84.4703    6.1959 C.3     1  UNL1        0.2525
     33 O          60.5225   84.8371    7.0616 O.3     1  UNL1       -0.4714
     34 C          58.3815   89.5629    6.7725 C.3     1  UNL1        0.1023
     35 N          58.8998   90.5118    5.7329 N.3     1  UNL1       -0.2664
     36 C          60.3542   90.5010    5.3659 C.3     1  UNL1        0.0899
     37 C          57.9636   91.4715    5.0602 C.3     1  UNL1        0.0899
@<TRIPOS>BOND
     1    32    33    1
     2    33    26    1
     3    26    27   ar
     4    27    28   ar
     5    28    29   ar
     6    29    25    1
     7    25    24    1
     8    24    20    1
     9    20    21    2
    10    20    22   am
    11    22     1    1
    12     1     2   ar
    13     2     3   ar
    14     3     7    1
    15     7     8   ar
    16     8     9   ar
    17     9    10    1
    18     9    11   ar
    19    11    12   ar
    20    12    13    1
    21     3     4   ar
    22     4     5   ar
    23     5    14    1
    24    14    15   ar
    25    15    16   ar
    26    16    17   ar
    27    17    18    1
    28    17    19   ar
    29     5     6   ar
    30    29    30   ar
    31    30    34    1
    32    34    35    1
    33    35    36    1
    34    35    37    1
    35    30    31   ar
    36    31    26   ar
    37     6     1   ar
    38    12     7   ar
    39    19    14   ar
    40    22    23    1
@<TRIPOS>MOLECULE
*****
 37 40 0 0 0
SMALL
GASTEIGER

@<TRIPOS>ATOM
      1 C          62.7184   87.6247   11.7581 C.ar    1  UNL1        0.1391
      2 C          62.9791   86.4851   12.6980 C.ar    1  UNL1        0.0733
      3 C          62.8088   85.0709   12.2275 C.ar    1  UNL1        0.1679
      4 N          62.3778   84.7965   10.8172 N.ar    1  UNL1       -0.2047
      5 C          62.1170   85.9361    9.8774 C.ar    1  UNL1        0.2001
      6 N          62.2873   87.3502   10.3478 N.ar    1  UNL1       -0.2088
      7 N          63.0696   83.9313   13.1674 N.ar    1  UNL1       -0.2164
      8 N          62.5696   82.5260   13.0092 N.ar    1  UNL1       -0.1684
      9 C          63.0671   81.7231   14.1744 C.ar    1  UNL1        0.0805
     10 C          62.8035   80.2667   14.4184 C.3     1  UNL1        0.0540
     11 C          63.8745   82.6323   15.0528 C.ar    1  UNL1        0.0312
     12 C          63.8760   83.9970   14.4304 C.ar    1  UNL1        0.0637
     13 C          64.5633   85.2138   14.9754 C.3     1  UNL1        0.0522
     14 C          61.6860   85.6616    8.4671 C.ar    1  UNL1        0.1805
     15 C          60.3897   86.0859    7.8429 C.ar    1  UNL1        0.0434
     16 C          60.3781   85.6012    6.4235 C.ar    1  UNL1        0.0362
     17 C          61.6673   84.8772    6.1703 C.ar    1  UNL1        0.1234
     18 C          62.0764   84.2297    4.8806 C.3     1  UNL1        0.0725
     19 O          62.4756   84.9146    7.4334 O.2     1  UNL1       -0.4546
     20 C          63.6313   89.3217   13.5008 C.2     1  UNL1        0.2717
     21 O          64.2036   88.1905   14.3025 O.2     1  UNL1       -0.2707
     22 N          62.8887   89.0388   12.2285 N.am    1  UNL1       -0.2662
     23 H          62.5130   89.7812   11.7023 H       1  UNL1        0.1564
     24 C          63.8016   90.7358   13.9712 C.3     1  UNL1        0.2897
     25 O          65.1529   91.3850   13.9220 O.3     1  UNL1       -0.4659
     26 C          66.0776   94.4172   10.7282 C.ar    1  UNL1        0.1387
     27 C          65.2737   93.1961   10.3928 C.ar    1  UNL1        0.0400
     28 C          64.9655   92.1853   11.4574 C.ar    1  UNL1        0.0397
     29 C          65.4612   92.3957   12.8574 C.ar    1  UNL1        0.1368
     30 C          66.2650   93.6169   13.1928 C.ar    1  UNL1        0.0309
     31 C          66.5732   94.6276   12.1282 C.ar    1  UNL1        0.0370
     32 C          67.0756   95.0016    8.4017 C.3     1  UNL1        0.2525
     33 O          66.3858   95.4280    9.6636 O.3     1  UNL1       -0.4714
     34 C          66.7607   93.8273   14.5929 C.3     1  UNL1        0.1023
     35 N          68.1211   93.3348   14.9888 N.3     1  UNL1       -0.2664
     36 C          68.9913   94.1706   15.8801 C.3     1  UNL1        0.0899
     37 C          68.6113   92.0065   14.4936 C.3     1  UNL1        0.0899
@<TRIPOS>BOND
     1    32    33    1
     2    33    26    1
     3    26    27   ar
     4    27    28   ar
     5    28    29   ar
     6    29    25    1
     7    25    24    1
     8    24    20    1
     9    20    21    2
    10    20    22   am
    11    22     1    1
    12     1     2   ar
    13     2     3   ar
    14     3     7    1
    15     7     8   ar
    16     8     9   ar
    17     9    10    1
    18     9    11   ar
    19    11    12   ar
    20    12    13    1
    21     3     4   ar
    22     4     5   ar
    23     5    14    1
    24    14    15   ar
    25    15    16   ar
    26    16    17   ar
    27    17    18    1
    28    17    19   ar
    29     5     6   ar
    30    29    30   ar
    31    30    34    1
    32    34    35    1
    33    35    36    1
    34    35    37    1
    35    30    31   ar
    36    31    26   ar
    37     6     1   ar
    38    12     7   ar
    39    19    14   ar
    40    22    23    1
@<TRIPOS>MOLECULE
*****
 37 40 0 0 0
SMALL
GASTEIGER

@<TRIPOS>ATOM
      1 C          62.1104   86.6292   11.0270 C.ar    1  UNL1        0.1391
      2 C          61.2302   86.9940    9.8684 C.ar    1  UNL1        0.0733
      3 C          61.1058   88.4270    9.4432 C.ar    1  UNL1        0.1679
      4 N          61.8616   89.4953   10.1765 N.ar    1  UNL1       -0.2047
      5 C          62.7417   89.1305   11.3350 C.ar    1  UNL1        0.2001
      6 N          62.8661   87.6974   11.7603 N.ar    1  UNL1       -0.2088
      7 N          60.2257   88.7919    8.2846 N.ar    1  UNL1       -0.2164
      8 N          60.1894   90.1204    7.5890 N.ar    1  UNL1       -0.1684
      9 C          59.1686   90.0419    6.4927 C.ar    1  UNL1        0.0805
     10 C          58.8061   91.1464    5.5448 C.3     1  UNL1        0.0540
     11 C          58.5740   88.6648    6.5109 C.ar    1  UNL1        0.0312
     12 C          59.2273   87.8923    7.6183 C.ar    1  UNL1        0.0637
     13 C          58.9338   86.4700    7.9935 C.3     1  UNL1        0.0522
     14 C          63.4975   90.1987   12.0684 C.ar    1  UNL1        0.1805
     15 C          63.5740   90.3603   13.5577 C.ar    1  UNL1        0.0434
     16 C          64.4332   91.5543   13.8508 C.ar    1  UNL1        0.0362
     17 C          64.8878   92.1308   12.5427 C.ar    1  UNL1        0.1234
     18 C          65.7664   93.3338   12.3670 C.3     1  UNL1        0.0725
     19 O          64.3094   91.2929   11.4410 O.2     1  UNL1       -0.4546
     20 C          62.9638   84.2160   10.5816 C.2     1  UNL1        0.2717
     21 O          63.5685   84.6690    9.2858 O.2     1  UNL1       -0.2707
     22 N          62.2348   85.1961   11.4523 N.am    1  UNL1       -0.2662
     23 H          61.8379   84.8988   12.3028 H       1  UNL1        0.1564
     24 C          63.0882   82.7829   11.0069 C.3     1  UNL1        0.2897
     25 O          63.8822   82.4296   12.2295 O.3     1  UNL1       -0.4659
     26 C          63.7438   85.0974   15.8508 C.ar    1  UNL1        0.1387
     27 C          64.9651   85.0774   14.9802 C.ar    1  UNL1        0.0400
     28 C          65.0112   84.1882   13.7731 C.ar    1  UNL1        0.0397
     29 C          63.8360   83.3189   13.4366 C.ar    1  UNL1        0.1368
     30 C          62.6148   83.3388   14.3072 C.ar    1  UNL1        0.0309
     31 C          62.5687   84.2281   15.5143 C.ar    1  UNL1        0.0370
     32 C          62.3765   86.4290   17.6135 C.3     1  UNL1        0.2525
     33 O          63.6977   85.9867   17.0579 O.3     1  UNL1       -0.4714
     34 C          61.4395   82.4695   13.9708 C.3     1  UNL1        0.1023
     35 N          61.5388   80.9809   14.1265 N.3     1  UNL1       -0.2664
     36 C          62.8845   80.3202   14.1777 C.3     1  UNL1        0.0899
     37 C          60.2923   80.1530   14.2310 C.3     1  UNL1        0.0899
@<TRIPOS>BOND
     1    32    33    1
     2    33    26    1
     3    26    27   ar
     4    27    28   ar
     5    28    29   ar
     6    29    25    1
     7    25    24    1
     8    24    20    1
     9    20    21    2
    10    20    22   am
    11    22     1    1
    12     1     2   ar
    13     2     3   ar
    14     3     7    1
    15     7     8   ar
    16     8     9   ar
    17     9    10    1
    18     9    11   ar
    19    11    12   ar
    20    12    13    1
    21     3     4   ar
    22     4     5   ar
    23     5    14    1
    24    14    15   ar
    25    15    16   ar
    26    16    17   ar
    27    17    18    1
    28    17    19   ar
    29     5     6   ar
    30    29    30   ar
    31    30    34    1
    32    34    35    1
    33    35    36    1
    34    35    37    1
    35    30    31   ar
    36    31    26   ar
    37     6     1   ar
    38    12     7   ar
    39    19    14   ar
    40    22    23    1
