@<TRIPOS>MOLECULE
*****
 40 44 0 0 0
SMALL
GASTEIGER

@<TRIPOS>ATOM
      1 C          62.4519   86.2596   11.0094 C.ar    1  UNL1        0.1389
      2 C          63.2064   86.8558   12.1606 C.ar    1  UNL1        0.0396
      3 C          63.3269   88.3456   12.2873 C.ar    1  UNL1        0.0343
      4 C          64.0814   88.9418   13.4386 C.ar    1  UNL1        0.0557
      5 C          64.2020   90.4316   13.5653 C.ar    1  UNL1        0.0856
      6 C          63.5680   91.3251   12.5408 C.ar    1  UNL1        0.1045
      7 N          62.8135   90.7290   11.3896 N.ar    1  UNL1       -0.2436
      8 C          62.6929   89.2392   11.2629 C.ar    1  UNL1        0.0827
      9 C          61.9385   88.6430   10.1117 C.ar    1  UNL1        0.0223
     10 C          61.8179   87.1532    9.9850 C.ar    1  UNL1        0.0394
     11 C          61.0634   86.5570    8.8337 C.ar    1  UNL1        0.0526
     12 C          61.6109   85.5885    7.8276 C.ar    1  UNL1        0.1007
     13 C          63.0090   85.0460    7.7961 C.3     1  UNL1        0.0557
     14 N          60.5148   85.2576    6.8586 N.ar    1  UNL1       -0.0817
     15 O          59.2898   86.0217    7.2658 O.2     1  UNL1       -0.3581
     16 C          59.6289   86.8248    8.4864 C.ar    1  UNL1        0.1545
     17 C          58.6971   87.7357    9.2294 C.3     1  UNL1        0.0754
     18 C          64.9564   91.0277   14.7165 C.2     1  UNL1        0.2455
     19 N          66.4538   91.1048   14.6725 N.am    1  UNL1       -0.3252
     20 O          64.2135   91.5469   15.9118 O.2     1  UNL1       -0.2703
     21 H          66.9414   90.7641   13.8880 H       1  UNL1        0.1453
     22 H          66.9490   91.4961   15.4281 H       1  UNL1        0.1453
     23 C          63.5369   83.9001   11.0831 C.3     1  UNL1        0.2525
     24 O          62.3314   84.7699   10.8827 O.3     1  UNL1       -0.4714
     25 N          64.7154   88.0482   14.4631 N.pl3   1  UNL1       -0.3126
     26 H          65.6738   87.8317   14.4018 H       1  UNL1        0.1522
     27 C          63.8891   87.4845   15.5808 C.ar    1  UNL1        0.0443
     28 C          63.2642   88.4031   16.5886 C.ar    1  UNL1        0.0143
     29 C          62.4379   87.8394   17.7064 C.ar    1  UNL1        0.0013
     30 C          62.2365   86.3571   17.8164 C.ar    1  UNL1       -0.0002
     31 C          62.8614   85.4384   16.8086 C.ar    1  UNL1       -0.0030
     32 C          63.6877   86.0021   15.6908 C.ar    1  UNL1       -0.0074
     33 C          64.3126   85.0835   14.6831 C.3     1  UNL1        0.0449
     34 C          64.5233   83.6364   15.0166 C.3     1  UNL1        0.0770
     35 N          63.6149   82.5930   14.4366 N.3     1  UNL1       -0.2681
     36 C          62.1611   82.5755   14.8053 C.3     1  UNL1        0.1046
     37 C          61.2528   81.5322   14.2254 C.3     1  UNL1        0.1595
     38 O          61.7983   80.5063   13.2768 O.3     1  UNL1       -0.3508
     39 C          63.2521   80.5238   12.9081 C.3     1  UNL1        0.1595
     40 C          64.1605   81.5671   13.4880 C.3     1  UNL1        0.1046
@<TRIPOS>BOND
     1    23    24    1
     2    24     1    1
     3     1     2   ar
     4     2     3   ar
     5     3     4   ar
     6     4    25    1
     7    25    27    1
     8    27    28   ar
     9    28    29   ar
    10    29    30   ar
    11    30    31   ar
    12    31    32   ar
    13    32    33    1
    14    33    34    1
    15    34    35    1
    16    35    36    1
    17    36    37    1
    18    37    38    1
    19    38    39    1
    20    39    40    1
    21     4     5   ar
    22     5    18    1
    23    18    19   am
    24    18    20    2
    25     5     6   ar
    26     6     7   ar
    27     7     8   ar
    28     8     9   ar
    29     9    10   ar
    30    10    11    1
    31    11    12   ar
    32    12    13    1
    33    12    14   ar
    34    14    15   ar
    35    15    16   ar
    36    16    17    1
    37    10     1   ar
    38    16    11   ar
    39     8     3   ar
    40    32    27   ar
    41    40    35    1
    42    25    26    1
    43    19    21    1
    44    19    22    1
@<TRIPOS>MOLECULE
*****
 40 44 0 0 0
SMALL
GASTEIGER

@<TRIPOS>ATOM
      1 C          64.0898   89.1796   13.6493 C.ar    1  UNL1        0.1389
      2 C          63.1444   88.3991   12.7850 C.ar    1  UNL1        0.0396
      3 C          62.4218   89.0788   11.6599 C.ar    1  UNL1        0.0343
      4 C          61.4764   88.2982   10.7956 C.ar    1  UNL1        0.0557
      5 C          60.7538   88.9779    9.6705 C.ar    1  UNL1        0.0856
      6 C          60.9766   90.4382    9.4097 C.ar    1  UNL1        0.1045
      7 N          61.9220   91.2187   10.2740 N.ar    1  UNL1       -0.2436
      8 C          62.6446   90.5390   11.3991 C.ar    1  UNL1        0.0827
      9 C          63.5900   91.3195   12.2633 C.ar    1  UNL1        0.0223
     10 C          64.3126   90.6398   13.3885 C.ar    1  UNL1        0.0394
     11 C          65.2580   91.4204   14.2527 C.ar    1  UNL1        0.0526
     12 C          66.5679   92.0086   13.8189 C.ar    1  UNL1        0.1007
     13 C          67.1624   91.9195   12.4446 C.3     1  UNL1        0.0557
     14 N          67.1789   92.7015   15.0006 N.ar    1  UNL1       -0.0817
     15 O          66.2467   92.5415   16.1649 O.2     1  UNL1       -0.3581
     16 C          65.0595   91.7498   15.7026 C.ar    1  UNL1        0.1545
     17 C          63.8808   91.3564   16.5428 C.3     1  UNL1        0.0754
     18 C          59.8084   88.1974    8.8063 C.2     1  UNL1        0.2455
     19 N          59.6211   88.5765    7.3671 N.am    1  UNL1       -0.3252
     20 O          59.0502   87.0377    9.3811 O.2     1  UNL1       -0.2703
     21 H          60.1186   89.3376    6.9898 H       1  UNL1        0.1453
     22 H          59.0006   88.0642    6.7998 H       1  UNL1        0.1453
     23 C          64.6185   87.0315   15.0117 C.3     1  UNL1        0.2525
     24 O          64.8123   88.4999   14.7744 O.3     1  UNL1       -0.4714
     25 N          61.2535   86.8380   11.0565 N.pl3   1  UNL1       -0.3126
     26 H          60.5202   86.5497   11.6466 H       1  UNL1        0.1522
     27 C          62.1481   85.8170   10.4182 C.ar    1  UNL1        0.0443
     28 C          62.3283   85.8040    8.9291 C.ar    1  UNL1        0.0143
     29 C          63.2229   84.7830    8.2908 C.ar    1  UNL1        0.0013
     30 C          63.9372   83.7751    9.1416 C.ar    1  UNL1       -0.0002
     31 C          63.7570   83.7881   10.6307 C.ar    1  UNL1       -0.0030
     32 C          62.8625   84.8091   11.2690 C.ar    1  UNL1       -0.0074
     33 C          62.6822   84.8222   12.7581 C.3     1  UNL1        0.0449
     34 C          63.2860   83.7345   13.5961 C.3     1  UNL1        0.0770
     35 N          62.6941   82.3563   13.5764 N.3     1  UNL1       -0.2681
     36 C          63.3951   81.2494   12.8462 C.3     1  UNL1        0.1046
     37 C          62.8031   79.8713   12.8265 C.3     1  UNL1        0.1595
     38 O          61.5102   79.6002   13.5370 O.3     1  UNL1       -0.3508
     39 C          60.8092   80.7071   14.2672 C.3     1  UNL1        0.1595
     40 C          61.4012   82.0852   14.2869 C.3     1  UNL1        0.1046
@<TRIPOS>BOND
     1    23    24    1
     2    24     1    1
     3     1     2   ar
     4     2     3   ar
     5     3     4   ar
     6     4    25    1
     7    25    27    1
     8    27    28   ar
     9    28    29   ar
    10    29    30   ar
    11    30    31   ar
    12    31    32   ar
    13    32    33    1
    14    33    34    1
    15    34    35    1
    16    35    36    1
    17    36    37    1
    18    37    38    1
    19    38    39    1
    20    39    40    1
    21     4     5   ar
    22     5    18    1
    23    18    19   am
    24    18    20    2
    25     5     6   ar
    26     6     7   ar
    27     7     8   ar
    28     8     9   ar
    29     9    10   ar
    30    10    11    1
    31    11    12   ar
    32    12    13    1
    33    12    14   ar
    34    14    15   ar
    35    15    16   ar
    36    16    17    1
    37    10     1   ar
    38    16    11   ar
    39     8     3   ar
    40    32    27   ar
    41    40    35    1
    42    25    26    1
    43    19    21    1
    44    19    22    1
@<TRIPOS>MOLECULE
*****
 40 44 0 0 0
SMALL
GASTEIGER

@<TRIPOS>ATOM
      1 C          63.8106   84.6283   12.9167 C.ar    1  UNL1        0.1389
      2 C          63.8582   86.1225   12.7940 C.ar    1  UNL1        0.0396
      3 C          62.8184   86.8423   11.9874 C.ar    1  UNL1        0.0343
      4 C          62.8661   88.3366   11.8647 C.ar    1  UNL1        0.0557
      5 C          61.8264   89.0565   11.0581 C.ar    1  UNL1        0.0856
      6 C          60.7390   88.2821   10.3740 C.ar    1  UNL1        0.1045
      7 N          60.6913   86.7879   10.4966 N.ar    1  UNL1       -0.2436
      8 C          61.7311   86.0680   11.3033 C.ar    1  UNL1        0.0827
      9 C          61.6834   84.5738   11.4259 C.ar    1  UNL1        0.0223
     10 C          62.7232   83.8540   12.2326 C.ar    1  UNL1        0.0394
     11 C          62.6755   82.3597   12.3552 C.ar    1  UNL1        0.0526
     12 C          62.1505   81.5877   13.5292 C.ar    1  UNL1        0.1007
     13 C          61.5810   82.1743   14.7868 C.3     1  UNL1        0.0557
     14 N          62.2950   80.1260   13.2249 N.ar    1  UNL1       -0.0817
     15 O          62.9093   79.9946   11.8627 O.2     1  UNL1       -0.3581
     16 C          63.1445   81.3751   11.3253 C.ar    1  UNL1        0.1545
     17 C          63.7435   81.7120    9.9919 C.3     1  UNL1        0.0754
     18 C          61.8740   90.5507   10.9354 C.2     1  UNL1        0.2455
     19 N          60.6777   91.3727   11.3136 N.am    1  UNL1       -0.3252
     20 O          63.1180   91.2228   10.4346 O.2     1  UNL1       -0.2703
     21 H          59.8613   90.9316   11.6423 H       1  UNL1        0.1453
     22 H          60.7090   92.3535   11.2331 H       1  UNL1        0.1453
     23 C          64.7204   83.8303   15.2157 C.3     1  UNL1        0.2525
     24 O          64.8503   83.9084   13.7234 O.3     1  UNL1       -0.4714
     25 N          63.9535   89.1109   12.5488 N.pl3   1  UNL1       -0.3126
     26 H          64.7716   89.3506   12.0564 H       1  UNL1        0.1522
     27 C          63.7944   89.5201   13.9831 C.ar    1  UNL1        0.0443
     28 C          63.3107   88.5264   14.9973 C.ar    1  UNL1        0.0143
     29 C          63.1516   88.9356   16.4316 C.ar    1  UNL1        0.0013
     30 C          63.4762   90.3385   16.8518 C.ar    1  UNL1       -0.0002
     31 C          63.9599   91.3322   15.8376 C.ar    1  UNL1       -0.0030
     32 C          64.1190   90.9231   14.4033 C.ar    1  UNL1       -0.0074
     33 C          64.6028   91.9167   13.3891 C.3     1  UNL1        0.0449
     34 C          66.0713   92.0568   13.1175 C.3     1  UNL1        0.0770
     35 N          66.5459   92.9209   11.9870 N.3     1  UNL1       -0.2681
     36 C          66.2135   94.3835   11.9703 C.3     1  UNL1        0.1046
     37 C          66.6882   95.2476   10.8399 C.3     1  UNL1        0.1595
     38 O          67.4952   94.6491    9.7261 O.3     1  UNL1       -0.3508
     39 C          67.8276   93.1865    9.7427 C.3     1  UNL1        0.1595
     40 C          67.3529   92.3224   10.8732 C.3     1  UNL1        0.1046
@<TRIPOS>BOND
     1    23    24    1
     2    24     1    1
     3     1     2   ar
     4     2     3   ar
     5     3     4   ar
     6     4    25    1
     7    25    27    1
     8    27    28   ar
     9    28    29   ar
    10    29    30   ar
    11    30    31   ar
    12    31    32   ar
    13    32    33    1
    14    33    34    1
    15    34    35    1
    16    35    36    1
    17    36    37    1
    18    37    38    1
    19    38    39    1
    20    39    40    1
    21     4     5   ar
    22     5    18    1
    23    18    19   am
    24    18    20    2
    25     5     6   ar
    26     6     7   ar
    27     7     8   ar
    28     8     9   ar
    29     9    10   ar
    30    10    11    1
    31    11    12   ar
    32    12    13    1
    33    12    14   ar
    34    14    15   ar
    35    15    16   ar
    36    16    17    1
    37    10     1   ar
    38    16    11   ar
    39     8     3   ar
    40    32    27   ar
    41    40    35    1
    42    25    26    1
    43    19    21    1
    44    19    22    1
@<TRIPOS>MOLECULE
*****
 40 44 0 0 0
SMALL
GASTEIGER

@<TRIPOS>ATOM
      1 C          62.0240   88.1083   10.8078 C.ar    1  UNL1        0.1389
      2 C          62.8631   87.5472   11.9172 C.ar    1  UNL1        0.0396
      3 C          62.9482   86.0628   12.1161 C.ar    1  UNL1        0.0343
      4 C          63.7874   85.5017   13.2256 C.ar    1  UNL1        0.0557
      5 C          63.8725   84.0174   13.4245 C.ar    1  UNL1        0.0856
      6 C          63.1183   83.0942   12.5139 C.ar    1  UNL1        0.1045
      7 N          62.2791   83.6554   11.4045 N.ar    1  UNL1       -0.2436
      8 C          62.1941   85.1397   11.2056 C.ar    1  UNL1        0.0827
      9 C          61.3549   85.7009   10.0962 C.ar    1  UNL1        0.0223
     10 C          61.2699   87.1852    9.8973 C.ar    1  UNL1        0.0394
     11 C          60.4306   87.7464    8.7878 C.ar    1  UNL1        0.0526
     12 C          59.7544   89.0853    8.7845 C.ar    1  UNL1        0.1007
     13 C          59.7986   90.0982    9.8899 C.3     1  UNL1        0.0557
     14 N          59.0262   89.2335    7.4815 N.ar    1  UNL1       -0.0817
     15 O          59.2523   87.9862    6.6796 O.2     1  UNL1       -0.3581
     16 C          60.1203   87.0671    7.4869 C.ar    1  UNL1        0.1545
     17 C          60.5947   85.7074    7.0671 C.3     1  UNL1        0.0754
     18 C          64.7116   83.4562   14.5339 C.2     1  UNL1        0.2455
     19 N          66.1724   83.7883   14.6110 N.am    1  UNL1       -0.3252
     20 O          64.0901   82.5628   15.5662 O.2     1  UNL1       -0.2703
     21 H          66.5803   84.3746   13.9335 H       1  UNL1        0.1453
     22 H          66.7231   83.4200   15.3392 H       1  UNL1        0.1453
     23 C          63.1907   90.3967   10.4176 C.3     1  UNL1        0.2525
     24 O          61.9389   89.5927   10.6089 O.3     1  UNL1       -0.4714
     25 N          64.5415   86.4248   14.1361 N.pl3   1  UNL1       -0.3126
     26 H          65.4466   86.7258   13.8922 H       1  UNL1        0.1522
     27 C          63.9167   86.8893   15.4182 C.ar    1  UNL1        0.0443
     28 C          63.4372   85.8865   16.4253 C.ar    1  UNL1        0.0143
     29 C          62.8124   86.3510   17.7074 C.ar    1  UNL1        0.0013
     30 C          62.6671   87.8184   17.9824 C.ar    1  UNL1       -0.0002
     31 C          63.1466   88.8213   16.9753 C.ar    1  UNL1       -0.0030
     32 C          63.7715   88.3568   15.6932 C.ar    1  UNL1       -0.0074
     33 C          64.2510   89.3596   14.6861 C.3     1  UNL1        0.0449
     34 C          64.0837   90.8267   14.9503 C.3     1  UNL1        0.0770
     35 N          65.0602   91.8087   14.3740 N.3     1  UNL1       -0.2681
     36 C          65.0790   92.0689   12.8969 C.3     1  UNL1        0.1046
     37 C          66.0555   93.0509   12.3207 C.3     1  UNL1        0.1595
     38 O          67.0133   93.7727   13.2216 O.3     1  UNL1       -0.3508
     39 C          66.9945   93.5125   14.6987 C.3     1  UNL1        0.1595
     40 C          66.0180   92.5305   15.2749 C.3     1  UNL1        0.1046
@<TRIPOS>BOND
     1    23    24    1
     2    24     1    1
     3     1     2   ar
     4     2     3   ar
     5     3     4   ar
     6     4    25    1
     7    25    27    1
     8    27    28   ar
     9    28    29   ar
    10    29    30   ar
    11    30    31   ar
    12    31    32   ar
    13    32    33    1
    14    33    34    1
    15    34    35    1
    16    35    36    1
    17    36    37    1
    18    37    38    1
    19    38    39    1
    20    39    40    1
    21     4     5   ar
    22     5    18    1
    23    18    19   am
    24    18    20    2
    25     5     6   ar
    26     6     7   ar
    27     7     8   ar
    28     8     9   ar
    29     9    10   ar
    30    10    11    1
    31    11    12   ar
    32    12    13    1
    33    12    14   ar
    34    14    15   ar
    35    15    16   ar
    36    16    17    1
    37    10     1   ar
    38    16    11   ar
    39     8     3   ar
    40    32    27   ar
    41    40    35    1
    42    25    26    1
    43    19    21    1
    44    19    22    1
@<TRIPOS>MOLECULE
*****
 40 44 0 0 0
SMALL
GASTEIGER

@<TRIPOS>ATOM
      1 C          63.1138   84.8185   11.5888 C.ar    1  UNL1        0.1389
      2 C          63.3052   86.2666   11.9301 C.ar    1  UNL1        0.0396
      3 C          63.4971   86.6813   13.3588 C.ar    1  UNL1        0.0343
      4 C          63.6885   88.1294   13.7001 C.ar    1  UNL1        0.0557
      5 C          63.8805   88.5442   15.1288 C.ar    1  UNL1        0.0856
      6 C          63.8810   87.5108   16.2162 C.ar    1  UNL1        0.1045
      7 N          63.6896   86.0628   15.8748 N.ar    1  UNL1       -0.2436
      8 C          63.4976   85.6481   14.4461 C.ar    1  UNL1        0.0827
      9 C          63.3062   84.2001   14.1048 C.ar    1  UNL1        0.0223
     10 C          63.1143   83.7853   12.6761 C.ar    1  UNL1        0.0394
     11 C          62.9229   82.3372   12.3348 C.ar    1  UNL1        0.0526
     12 C          63.5175   81.6228   11.1575 C.ar    1  UNL1        0.1007
     13 C          64.4079   82.2309   10.1148 C.3     1  UNL1        0.0557
     14 N          63.0653   80.1934   11.2060 N.ar    1  UNL1       -0.0817
     15 O          62.1913   80.0243   12.4133 O.2     1  UNL1       -0.3581
     16 C          62.1033   81.3493   13.1109 C.ar    1  UNL1        0.1545
     17 C          61.3312   81.6360   14.3645 C.3     1  UNL1        0.0754
     18 C          64.0719   89.9922   15.4702 C.2     1  UNL1        0.2455
     19 N          63.2557   90.6199   16.5610 N.am    1  UNL1       -0.3252
     20 O          65.0795   90.8127   14.7207 O.2     1  UNL1       -0.2703
     21 H          62.5944   90.0814   17.0530 H       1  UNL1        0.1453
     22 H          63.3814   91.5703   16.7851 H       1  UNL1        0.1453
     23 C          62.7237   85.4437    9.0974 C.3     1  UNL1        0.2525
     24 O          62.9218   84.4038   10.1601 O.3     1  UNL1       -0.4714
     25 N          63.6880   89.1627   12.6128 N.pl3   1  UNL1       -0.3126
     26 H          64.5385   89.5434   12.2951 H       1  UNL1        0.1522
     27 C          62.3916   89.6159   12.0095 C.ar    1  UNL1        0.0443
     28 C          61.0959   89.0351   12.4927 C.ar    1  UNL1        0.0143
     29 C          59.7995   89.4883   11.8894 C.ar    1  UNL1        0.0013
     30 C          59.7989   90.5225   10.8029 C.ar    1  UNL1       -0.0002
     31 C          61.0947   91.1034   10.3197 C.ar    1  UNL1       -0.0030
     32 C          62.3911   90.6502   10.9230 C.ar    1  UNL1       -0.0074
     33 C          63.6868   91.2311   10.4398 C.3     1  UNL1        0.0449
     34 C          64.5115   92.0881   11.3537 C.3     1  UNL1        0.0770
     35 N          65.6551   92.8876   10.8030 N.3     1  UNL1       -0.2681
     36 C          66.8521   92.1882   10.2305 C.3     1  UNL1        0.1046
     37 C          67.9956   92.9876    9.6798 C.3     1  UNL1        0.1595
     38 O          67.9421   94.4865    9.7018 O.3     1  UNL1       -0.3508
     39 C          66.7451   95.1859   10.2744 C.3     1  UNL1        0.1595
     40 C          65.6016   94.3865   10.8250 C.3     1  UNL1        0.1046
@<TRIPOS>BOND
     1    23    24    1
     2    24     1    1
     3     1     2   ar
     4     2     3   ar
     5     3     4   ar
     6     4    25    1
     7    25    27    1
     8    27    28   ar
     9    28    29   ar
    10    29    30   ar
    11    30    31   ar
    12    31    32   ar
    13    32    33    1
    14    33    34    1
    15    34    35    1
    16    35    36    1
    17    36    37    1
    18    37    38    1
    19    38    39    1
    20    39    40    1
    21     4     5   ar
    22     5    18    1
    23    18    19   am
    24    18    20    2
    25     5     6   ar
    26     6     7   ar
    27     7     8   ar
    28     8     9   ar
    29     9    10   ar
    30    10    11    1
    31    11    12   ar
    32    12    13    1
    33    12    14   ar
    34    14    15   ar
    35    15    16   ar
    36    16    17    1
    37    10     1   ar
    38    16    11   ar
    39     8     3   ar
    40    32    27   ar
    41    40    35    1
    42    25    26    1
    43    19    21    1
    44    19    22    1
@<TRIPOS>MOLECULE
*****
 40 44 0 0 0
SMALL
GASTEIGER

@<TRIPOS>ATOM
      1 C          63.7830   88.8905   13.3729 C.ar    1  UNL1        0.1389
      2 C          62.9364   87.9481   12.5697 C.ar    1  UNL1        0.0396
      3 C          62.2323   88.4361   11.3384 C.ar    1  UNL1        0.0343
      4 C          61.3857   87.4936   10.5353 C.ar    1  UNL1        0.0557
      5 C          60.6816   87.9816    9.3040 C.ar    1  UNL1        0.0856
      6 C          60.8241   89.4122    8.8759 C.ar    1  UNL1        0.1045
      7 N          61.6707   90.3547    9.6790 N.ar    1  UNL1       -0.2436
      8 C          62.3748   89.8666   10.9103 C.ar    1  UNL1        0.0827
      9 C          63.2214   90.8091   11.7134 C.ar    1  UNL1        0.0223
     10 C          63.9255   90.3210   12.9447 C.ar    1  UNL1        0.0394
     11 C          64.7721   91.2635   13.7478 C.ar    1  UNL1        0.0526
     12 C          65.8862   92.1171   13.2185 C.ar    1  UNL1        0.1007
     13 C          66.3494   92.1780   11.7931 C.3     1  UNL1        0.0557
     14 N          66.4559   92.8990   14.3648 N.ar    1  UNL1       -0.0817
     15 O          65.6938   92.5287   15.6027 O.2     1  UNL1       -0.3581
     16 C          64.6532   91.5180   15.2213 C.ar    1  UNL1        0.1545
     17 C          63.6668   90.8746   16.1504 C.3     1  UNL1        0.0754
     18 C          59.8350   87.0392    8.5009 C.2     1  UNL1        0.2455
     19 N          58.4636   87.4550    8.0578 N.am    1  UNL1       -0.3252
     20 O          60.3599   85.6809    8.1408 O.2     1  UNL1       -0.2703
     21 H          58.1192   88.3465    8.2941 H       1  UNL1        0.1453
     22 H          57.9080   86.8364    7.5306 H       1  UNL1        0.1453
     23 C          65.0285   87.0045   14.6541 C.3     1  UNL1        0.2525
     24 O          64.4871   88.4025   14.6041 O.3     1  UNL1       -0.4714
     25 N          61.2432   86.0631   10.9635 N.pl3   1  UNL1       -0.3126
     26 H          60.4320   85.7698   11.4379 H       1  UNL1        0.1522
     27 C          62.3367   85.0796   10.6688 C.ar    1  UNL1        0.0443
     28 C          62.9874   85.0640    9.3174 C.ar    1  UNL1        0.0143
     29 C          64.0809   84.0804    9.0227 C.ar    1  UNL1        0.0013
     30 C          64.5238   83.1124   10.0795 C.ar    1  UNL1       -0.0002
     31 C          63.8731   83.1280   11.4310 C.ar    1  UNL1       -0.0030
     32 C          62.7796   84.1115   11.7257 C.ar    1  UNL1       -0.0074
     33 C          62.1290   84.1271   13.0771 C.3     1  UNL1        0.0449
     34 C          62.9690   84.0202   14.3151 C.3     1  UNL1        0.0770
     35 N          62.6481   84.8623   15.5143 N.3     1  UNL1       -0.2681
     36 C          63.7018   85.1275   16.5483 C.3     1  UNL1        0.1046
     37 C          63.3808   85.9695   17.7474 C.3     1  UNL1        0.1595
     38 O          62.0060   86.5463   17.9126 O.3     1  UNL1       -0.3508
     39 C          60.9523   86.2810   16.8786 C.3     1  UNL1        0.1595
     40 C          61.2733   85.4390   15.6795 C.3     1  UNL1        0.1046
@<TRIPOS>BOND
     1    23    24    1
     2    24     1    1
     3     1     2   ar
     4     2     3   ar
     5     3     4   ar
     6     4    25    1
     7    25    27    1
     8    27    28   ar
     9    28    29   ar
    10    29    30   ar
    11    30    31   ar
    12    31    32   ar
    13    32    33    1
    14    33    34    1
    15    34    35    1
    16    35    36    1
    17    36    37    1
    18    37    38    1
    19    38    39    1
    20    39    40    1
    21     4     5   ar
    22     5    18    1
    23    18    19   am
    24    18    20    2
    25     5     6   ar
    26     6     7   ar
    27     7     8   ar
    28     8     9   ar
    29     9    10   ar
    30    10    11    1
    31    11    12   ar
    32    12    13    1
    33    12    14   ar
    34    14    15   ar
    35    15    16   ar
    36    16    17    1
    37    10     1   ar
    38    16    11   ar
    39     8     3   ar
    40    32    27   ar
    41    40    35    1
    42    25    26    1
    43    19    21    1
    44    19    22    1
