@<TRIPOS>MOLECULE
*****
 20 22 0 0 0
SMALL
GASTEIGER

@<TRIPOS>ATOM
      1 C          60.1448   88.2254    9.2104 C.3     1  UNL1        0.0952
      2 C          60.7958   87.3603   10.2486 C.2     1  UNL1        0.2309
      3 O          60.5170   87.5963   11.7035 O.2     1  UNL1       -0.2745
      4 N          61.7255   86.2594    9.8320 N.am    1  UNL1       -0.2440
      5 C          62.0043   86.0235    8.3772 C.3     1  UNL1        0.1017
      6 C          62.9340   84.9225    7.9606 C.3     1  UNL1        0.0483
      7 C          63.5849   84.0575    8.9988 C.3     1  UNL1        0.1306
      8 N          63.3062   84.2934   10.4537 N.ar    1  UNL1       -0.2376
      9 N          63.7978   83.6078   11.6939 N.ar    1  UNL1       -0.1688
     10 C          63.1720   84.2850   12.8770 C.ar    1  UNL1        0.1250
     11 C          62.2935   85.3891   12.3680 C.ar    1  UNL1        0.0545
     12 C          62.3765   85.3944   10.8703 C.ar    1  UNL1        0.1356
     13 C          63.3869   83.9218   14.3164 C.3     1  UNL1        0.2526
     14 O          64.3460   84.7138   15.1547 O.3     1  UNL1       -0.4689
     15 C          63.9739   86.0894   15.6228 C.ar    1  UNL1        0.1391
     16 C          64.3786   87.2900   14.8197 C.ar    1  UNL1        0.0369
     17 C          64.0065   88.6656   15.2878 C.ar    1  UNL1        0.0031
     18 C          63.2297   88.8407   16.5590 C.ar    1  UNL1        0.0002
     19 C          62.8250   87.6402   17.3621 C.ar    1  UNL1        0.0031
     20 C          63.1971   86.2645   16.8939 C.ar    1  UNL1        0.0369
@<TRIPOS>BOND
     1     1     2    1
     2     2     3    2
     3     2     4   am
     4     4     5    1
     5     5     6    1
     6     6     7    1
     7     7     8    1
     8     8     9   ar
     9     9    10   ar
    10    10    13    1
    11    13    14    1
    12    14    15    1
    13    15    16   ar
    14    16    17   ar
    15    17    18   ar
    16    18    19   ar
    17    19    20   ar
    18    10    11   ar
    19    11    12   ar
    20    12     4    1
    21    12     8   ar
    22    20    15   ar
@<TRIPOS>MOLECULE
*****
 20 22 0 0 0
SMALL
GASTEIGER

@<TRIPOS>ATOM
      1 C          66.5515   93.4236   12.4437 C.3     1  UNL1        0.0952
      2 C          65.3978   92.6281   11.9089 C.2     1  UNL1        0.2309
      3 O          64.9736   92.7902   10.4793 O.2     1  UNL1       -0.2745
      4 N          64.6683   91.6704   12.8036 N.am    1  UNL1       -0.2440
      5 C          65.0925   91.5082   14.2332 C.3     1  UNL1        0.1017
      6 C          64.3629   90.5505   15.1280 C.3     1  UNL1        0.0483
      7 C          63.2093   89.7550   14.5932 C.3     1  UNL1        0.1306
      8 N          62.7851   89.9171   13.1636 N.ar    1  UNL1       -0.2376
      9 N          61.6933   89.2733   12.3614 N.ar    1  UNL1       -0.1688
     10 C          61.7480   89.8331   10.9709 C.ar    1  UNL1        0.1250
     11 C          62.8736   90.8229   10.9137 C.ar    1  UNL1        0.0545
     12 C          63.5146   90.8748   12.2688 C.ar    1  UNL1        0.1356
     13 C          60.8370   89.4674    9.8367 C.3     1  UNL1        0.2526
     14 O          60.2541   88.0876    9.7579 O.3     1  UNL1       -0.4689
     15 C          60.9517   87.0228    8.9645 C.ar    1  UNL1        0.1391
     16 C          62.3632   86.6413    9.2996 C.ar    1  UNL1        0.0369
     17 C          63.0609   85.5766    8.5062 C.ar    1  UNL1        0.0031
     18 C          62.3470   84.8933    7.3775 C.ar    1  UNL1        0.0002
     19 C          60.9356   85.2749    7.0424 C.ar    1  UNL1        0.0031
     20 C          60.2380   86.3396    7.8359 C.ar    1  UNL1        0.0369
@<TRIPOS>BOND
     1     1     2    1
     2     2     3    2
     3     2     4   am
     4     4     5    1
     5     5     6    1
     6     6     7    1
     7     7     8    1
     8     8     9   ar
     9     9    10   ar
    10    10    13    1
    11    13    14    1
    12    14    15    1
    13    15    16   ar
    14    16    17   ar
    15    17    18   ar
    16    18    19   ar
    17    19    20   ar
    18    10    11   ar
    19    11    12   ar
    20    12     4    1
    21    12     8   ar
    22    20    15   ar
@<TRIPOS>MOLECULE
*****
 20 22 0 0 0
SMALL
GASTEIGER

@<TRIPOS>ATOM
      1 C          66.3743   92.3385   15.7420 C.3     1  UNL1        0.0952
      2 C          65.3874   91.7222   14.7954 C.2     1  UNL1        0.2309
      3 O          64.4197   90.6880   15.2893 O.2     1  UNL1       -0.2745
      4 N          65.3681   92.1402   13.3549 N.am    1  UNL1       -0.2440
      5 C          66.3358   93.1744   12.8611 C.3     1  UNL1        0.1017
      6 C          66.3165   93.5924   11.4206 C.3     1  UNL1        0.0483
      7 C          65.3296   92.9761   10.4740 C.3     1  UNL1        0.1306
      8 N          64.3620   91.9418   10.9679 N.ar    1  UNL1       -0.2376
      9 N          63.2827   91.1646   10.2741 N.ar    1  UNL1       -0.1688
     10 C          62.6350   90.2663   11.2858 C.ar    1  UNL1        0.1250
     11 C          63.3139   90.4884   12.6048 C.ar    1  UNL1        0.0545
     12 C          64.3812   91.5239   12.4083 C.ar    1  UNL1        0.1356
     13 C          61.5065   89.3134   11.0244 C.3     1  UNL1        0.2526
     14 O          61.5167   87.9495   11.6487 O.3     1  UNL1       -0.4689
     15 C          62.0809   86.7830   10.8931 C.ar    1  UNL1        0.1391
     16 C          62.2316   86.8570    9.4025 C.ar    1  UNL1        0.0369
     17 C          62.7958   85.6905    8.6469 C.ar    1  UNL1        0.0031
     18 C          63.2094   84.4500    9.3820 C.ar    1  UNL1        0.0002
     19 C          63.0587   84.3761   10.8725 C.ar    1  UNL1        0.0031
     20 C          62.4945   85.5426   11.6281 C.ar    1  UNL1        0.0369
@<TRIPOS>BOND
     1     1     2    1
     2     2     3    2
     3     2     4   am
     4     4     5    1
     5     5     6    1
     6     6     7    1
     7     7     8    1
     8     8     9   ar
     9     9    10   ar
    10    10    13    1
    11    13    14    1
    12    14    15    1
    13    15    16   ar
    14    16    17   ar
    15    17    18   ar
    16    18    19   ar
    17    19    20   ar
    18    10    11   ar
    19    11    12   ar
    20    12     4    1
    21    12     8   ar
    22    20    15   ar
@<TRIPOS>MOLECULE
*****
 20 22 0 0 0
SMALL
GASTEIGER

@<TRIPOS>ATOM
      1 C          66.5063   94.5653   11.4494 C.3     1  UNL1        0.0952
      2 C          65.5388   93.4204   11.3928 C.2     1  UNL1        0.2309
      3 O          64.8004   93.1247   10.1211 O.2     1  UNL1       -0.2745
      4 N          65.3097   92.5713   12.6079 N.am    1  UNL1       -0.2440
      5 C          66.0480   92.8670   13.8796 C.3     1  UNL1        0.1017
      6 C          65.8189   92.0179   15.0947 C.3     1  UNL1        0.0483
      7 C          64.8514   90.8730   15.0381 C.3     1  UNL1        0.1306
      8 N          64.1131   90.5773   13.7664 N.ar    1  UNL1       -0.2376
      9 N          63.1056   89.5239   13.4124 N.ar    1  UNL1       -0.1688
     10 C          62.7120   89.7219   11.9786 C.ar    1  UNL1        0.1250
     11 C          63.4763   90.8978   11.4464 C.ar    1  UNL1        0.0545
     12 C          64.3422   91.4264   12.5513 C.ar    1  UNL1        0.1356
     13 C          61.7272   88.8902   11.2116 C.3     1  UNL1        0.2526
     14 O          61.4781   87.4656   11.6096 O.3     1  UNL1       -0.4689
     15 C          62.1333   86.3495   10.8514 C.ar    1  UNL1        0.1391
     16 C          62.2722   86.4360    9.3603 C.ar    1  UNL1        0.0369
     17 C          62.9274   85.3199    8.6021 C.ar    1  UNL1        0.0031
     18 C          63.4438   84.1172    9.3349 C.ar    1  UNL1        0.0002
     19 C          63.3050   84.0307   10.8259 C.ar    1  UNL1        0.0031
     20 C          62.6497   85.1469   11.5842 C.ar    1  UNL1        0.0369
@<TRIPOS>BOND
     1     1     2    1
     2     2     3    2
     3     2     4   am
     4     4     5    1
     5     5     6    1
     6     6     7    1
     7     7     8    1
     8     8     9   ar
     9     9    10   ar
    10    10    13    1
    11    13    14    1
    12    14    15    1
    13    15    16   ar
    14    16    17   ar
    15    17    18   ar
    16    18    19   ar
    17    19    20   ar
    18    10    11   ar
    19    11    12   ar
    20    12     4    1
    21    12     8   ar
    22    20    15   ar
@<TRIPOS>MOLECULE
*****
 20 22 0 0 0
SMALL
GASTEIGER

@<TRIPOS>ATOM
      1 C          59.7753   88.0186    7.8685 C.3     1  UNL1        0.0952
      2 C          60.5568   87.4510    9.0160 C.2     1  UNL1        0.2309
      3 O          60.5503   85.9727    9.2695 O.2     1  UNL1       -0.2745
      4 N          61.3449   88.3618    9.9101 N.am    1  UNL1       -0.2440
      5 C          61.3515   89.8402    9.6566 C.3     1  UNL1        0.1017
      6 C          62.1396   90.7510   10.5507 C.3     1  UNL1        0.0483
      7 C          62.9212   90.1833   11.6982 C.3     1  UNL1        0.1306
      8 N          62.9146   88.7050   11.9517 N.ar    1  UNL1       -0.2376
      9 N          63.5837   87.8629   12.9973 N.ar    1  UNL1       -0.1688
     10 C          63.2091   86.4317   12.7495 C.ar    1  UNL1        0.1250
     11 C          62.3085   86.3893   11.5507 C.ar    1  UNL1        0.0545
     12 C          62.1265   87.7942   11.0576 C.ar    1  UNL1        0.1356
     13 C          63.6566   85.2505   13.5584 C.3     1  UNL1        0.2526
     14 O          62.6548   84.2325   14.0168 O.3     1  UNL1       -0.4689
     15 C          62.6424   82.8635   13.4039 C.ar    1  UNL1        0.1391
     16 C          62.2196   81.6794   14.2219 C.ar    1  UNL1        0.0369
     17 C          62.2072   80.3104   13.6090 C.ar    1  UNL1        0.0031
     18 C          62.6176   80.1255   12.1781 C.ar    1  UNL1        0.0002
     19 C          63.0403   81.3096   11.3602 C.ar    1  UNL1        0.0031
     20 C          63.0528   82.6786   11.9731 C.ar    1  UNL1        0.0369
@<TRIPOS>BOND
     1     1     2    1
     2     2     3    2
     3     2     4   am
     4     4     5    1
     5     5     6    1
     6     6     7    1
     7     7     8    1
     8     8     9   ar
     9     9    10   ar
    10    10    13    1
    11    13    14    1
    12    14    15    1
    13    15    16   ar
    14    16    17   ar
    15    17    18   ar
    16    18    19   ar
    17    19    20   ar
    18    10    11   ar
    19    11    12   ar
    20    12     4    1
    21    12     8   ar
    22    20    15   ar
@<TRIPOS>MOLECULE
*****
 20 22 0 0 0
SMALL
GASTEIGER

@<TRIPOS>ATOM
      1 C          62.8991   84.0568   12.8274 C.3     1  UNL1        0.0952
      2 C          63.0906   85.5440   12.7881 C.2     1  UNL1        0.2309
      3 O          63.8217   86.2357   13.9004 O.2     1  UNL1       -0.2745
      4 N          62.5511   86.3396   11.6366 N.am    1  UNL1       -0.2440
      5 C          61.8200   85.6479   10.5243 C.3     1  UNL1        0.1017
      6 C          61.2805   86.4434    9.3728 C.3     1  UNL1        0.0483
      7 C          61.4719   87.9306    9.3335 C.3     1  UNL1        0.1306
      8 N          62.2030   88.6223   10.4458 N.ar    1  UNL1       -0.2376
      9 N          62.5428   90.0645   10.6792 N.ar    1  UNL1       -0.1688
     10 C          63.2924   90.1604   11.9749 C.ar    1  UNL1        0.1250
     11 C          63.4158   88.7773   12.5423 C.ar    1  UNL1        0.0545
     12 C          62.7425   87.8267   11.5973 C.ar    1  UNL1        0.1356
     13 C          63.8250   91.4183   12.5944 C.3     1  UNL1        0.2526
     14 O          64.2049   91.4373   14.0454 O.3     1  UNL1       -0.4689
     15 C          65.5931   91.8340   14.4521 C.ar    1  UNL1        0.1391
     16 C          66.7360   91.6480   13.4986 C.ar    1  UNL1        0.0369
     17 C          68.1243   92.0448   13.9054 C.ar    1  UNL1        0.0031
     18 C          68.3695   92.6276   15.2657 C.ar    1  UNL1        0.0002
     19 C          67.2266   92.8136   16.2191 C.ar    1  UNL1        0.0031
     20 C          65.8384   92.4168   15.8123 C.ar    1  UNL1        0.0369
@<TRIPOS>BOND
     1     1     2    1
     2     2     3    2
     3     2     4   am
     4     4     5    1
     5     5     6    1
     6     6     7    1
     7     7     8    1
     8     8     9   ar
     9     9    10   ar
    10    10    13    1
    11    13    14    1
    12    14    15    1
    13    15    16   ar
    14    16    17   ar
    15    17    18   ar
    16    18    19   ar
    17    19    20   ar
    18    10    11   ar
    19    11    12   ar
    20    12     4    1
    21    12     8   ar
    22    20    15   ar
@<TRIPOS>MOLECULE
*****
 20 22 0 0 0
SMALL
GASTEIGER

@<TRIPOS>ATOM
      1 C          66.6122   95.1729   11.1214 C.3     1  UNL1        0.0952
      2 C          65.7865   93.9270   11.2462 C.2     1  UNL1        0.2309
      3 O          65.0128   93.4187   10.0659 O.2     1  UNL1       -0.2745
      4 N          65.7344   93.1892   12.5512 N.am    1  UNL1       -0.2440
      5 C          66.5080   93.6975   13.7315 C.3     1  UNL1        0.1017
      6 C          66.4559   92.9598   15.0365 C.3     1  UNL1        0.0483
      7 C          65.6302   91.7138   15.1612 C.3     1  UNL1        0.1306
      8 N          64.8565   91.2055   13.9809 N.ar    1  UNL1       -0.2376
      9 N          63.9622   90.0143   13.8046 N.ar    1  UNL1       -0.1688
     10 C          63.4615   90.0157   12.3906 C.ar    1  UNL1        0.1250
     11 C          64.0465   91.2079   11.6931 C.ar    1  UNL1        0.0545
     12 C          64.9086   91.9432   12.6759 C.ar    1  UNL1        0.1356
     13 C          62.5381   89.0029   11.7812 C.3     1  UNL1        0.2526
     14 O          61.6993   89.3715   10.5935 O.3     1  UNL1       -0.4689
     15 C          61.2346   88.3072    9.6441 C.ar    1  UNL1        0.1391
     16 C          62.0158   87.0344    9.5036 C.ar    1  UNL1        0.0369
     17 C          61.5512   85.9701    8.5543 C.ar    1  UNL1        0.0031
     18 C          60.3052   86.1786    7.7453 C.ar    1  UNL1        0.0002
     19 C          59.5241   87.4514    7.8859 C.ar    1  UNL1        0.0031
     20 C          59.9887   88.5157    8.8353 C.ar    1  UNL1        0.0369
@<TRIPOS>BOND
     1     1     2    1
     2     2     3    2
     3     2     4   am
     4     4     5    1
     5     5     6    1
     6     6     7    1
     7     7     8    1
     8     8     9   ar
     9     9    10   ar
    10    10    13    1
    11    13    14    1
    12    14    15    1
    13    15    16   ar
    14    16    17   ar
    15    17    18   ar
    16    18    19   ar
    17    19    20   ar
    18    10    11   ar
    19    11    12   ar
    20    12     4    1
    21    12     8   ar
    22    20    15   ar
@<TRIPOS>MOLECULE
*****
 20 22 0 0 0
SMALL
GASTEIGER

@<TRIPOS>ATOM
      1 C          63.4983   82.5803   14.5092 C.3     1  UNL1        0.0952
      2 C          62.8848   83.7075   13.7327 C.2     1  UNL1        0.2309
      3 O          62.0273   84.7203   14.4317 O.2     1  UNL1       -0.2745
      4 N          63.1288   83.8218   12.2571 N.am    1  UNL1       -0.2440
      5 C          63.9864   82.8089   11.5580 C.3     1  UNL1        0.1017
      6 C          64.2304   82.9232   10.0824 C.3     1  UNL1        0.0483
      7 C          63.6169   84.0504    9.3059 C.3     1  UNL1        0.1306
      8 N          62.7593   85.0632   10.0049 N.ar    1  UNL1       -0.2376
      9 N          62.0270   86.2737    9.5064 N.ar    1  UNL1       -0.1688
     10 C          61.3303   86.9075   10.6739 C.ar    1  UNL1        0.1250
     11 C          61.6322   86.0887   11.8939 C.ar    1  UNL1        0.0545
     12 C          62.5153   84.9489   11.4805 C.ar    1  UNL1        0.1356
     13 C          60.4810   88.1430   10.6292 C.3     1  UNL1        0.2526
     14 O          60.6718   89.2218   11.6538 O.3     1  UNL1       -0.4689
     15 C          61.9350   90.0305   11.6652 C.ar    1  UNL1        0.1391
     16 C          62.3661   90.7656   10.4307 C.ar    1  UNL1        0.0369
     17 C          63.6294   91.5743   10.4421 C.ar    1  UNL1        0.0031
     18 C          64.4616   91.6479   11.6880 C.ar    1  UNL1        0.0002
     19 C          64.0305   90.9128   12.9224 C.ar    1  UNL1        0.0031
     20 C          62.7672   90.1041   12.9110 C.ar    1  UNL1        0.0369
@<TRIPOS>BOND
     1     1     2    1
     2     2     3    2
     3     2     4   am
     4     4     5    1
     5     5     6    1
     6     6     7    1
     7     7     8    1
     8     8     9   ar
     9     9    10   ar
    10    10    13    1
    11    13    14    1
    12    14    15    1
    13    15    16   ar
    14    16    17   ar
    15    17    18   ar
    16    18    19   ar
    17    19    20   ar
    18    10    11   ar
    19    11    12   ar
    20    12     4    1
    21    12     8   ar
    22    20    15   ar
@<TRIPOS>MOLECULE
*****
 20 22 0 0 0
SMALL
GASTEIGER

@<TRIPOS>ATOM
      1 C          65.0065   91.2469   15.3276 C.3     1  UNL1        0.0952
      2 C          64.0047   90.6040   14.4148 C.2     1  UNL1        0.2309
      3 O          63.0572   89.5714   14.9496 O.2     1  UNL1       -0.2745
      4 N          63.9504   90.9937   12.9674 N.am    1  UNL1       -0.2440
      5 C          64.8979   92.0263   12.4326 C.3     1  UNL1        0.1017
      6 C          64.8436   92.4161   10.9852 C.3     1  UNL1        0.0483
      7 C          63.8418   91.7732   10.0724 C.3     1  UNL1        0.1306
      8 N          62.8944   90.7406   10.6072 N.ar    1  UNL1       -0.2376
      9 N          61.8072   89.9411    9.9523 N.ar    1  UNL1       -0.1688
     10 C          61.1896   89.0572   10.9951 C.ar    1  UNL1        0.1250
     11 C          61.8950   89.3105   12.2943 C.ar    1  UNL1        0.0545
     12 C          62.9486   90.3509   12.0546 C.ar    1  UNL1        0.1356
     13 C          60.0641   88.0898   10.7768 C.3     1  UNL1        0.2526
     14 O          59.7670   87.5839    9.3963 O.3     1  UNL1       -0.4689
     15 C          60.7279   86.6552    8.7149 C.ar    1  UNL1        0.1391
     16 C          60.3050   85.9094    7.4841 C.ar    1  UNL1        0.0369
     17 C          61.2658   84.9807    6.8027 C.ar    1  UNL1        0.0031
     18 C          62.6496   84.7978    7.3522 C.ar    1  UNL1        0.0002
     19 C          63.0724   85.5437    8.5829 C.ar    1  UNL1        0.0031
     20 C          62.1116   86.4724    9.2643 C.ar    1  UNL1        0.0369
@<TRIPOS>BOND
     1     1     2    1
     2     2     3    2
     3     2     4   am
     4     4     5    1
     5     5     6    1
     6     6     7    1
     7     7     8    1
     8     8     9   ar
     9     9    10   ar
    10    10    13    1
    11    13    14    1
    12    14    15    1
    13    15    16   ar
    14    16    17   ar
    15    17    18   ar
    16    18    19   ar
    17    19    20   ar
    18    10    11   ar
    19    11    12   ar
    20    12     4    1
    21    12     8   ar
    22    20    15   ar
