@<TRIPOS>MOLECULE
*****
 24 26 0 0 0
SMALL
GASTEIGER

@<TRIPOS>ATOM
      1 C          62.8722   88.5189   12.1391 C.ar    1  UNL1        0.2035
      2 N          63.2587   87.0822   12.3296 N.ar    1  UNL1       -0.2133
      3 C          62.4278   85.9943   11.7163 C.ar    1  UNL1        0.1065
      4 C          61.2104   86.3431   10.9125 C.ar    1  UNL1        0.0815
      5 C          60.8239   87.7799   10.7220 C.ar    1  UNL1        0.2646
      6 O          59.6064   88.1288    9.9182 O.2     1  UNL1       -0.2668
      7 N          61.6547   88.8677   11.3353 N.ar    1  UNL1       -0.2667
      8 C          61.2681   90.3046   11.1448 C.3     1  UNL1        0.1363
      9 N          65.3648   91.7825   13.9790 N.3     1  UNL1       -0.2711
     10 C          64.7575   91.9776   12.6215 C.3     1  UNL1        0.0939
     11 C          63.9266   90.8898   12.0082 C.3     1  UNL1        0.1108
     12 N          63.7031   89.6068   12.7524 N.pl3   1  UNL1       -0.2783
     13 C          64.3104   89.4117   14.1099 C.3     1  UNL1        0.0915
     14 C          64.0870   88.1286   14.8543 C.3     1  UNL1        0.0230
     15 C          65.1413   90.4995   14.7232 C.3     1  UNL1        0.0921
     16 C          66.5873   94.0659   13.7754 C.3     1  UNL1        0.0173
     17 C          66.1957   92.8704   14.5923 C.3     1  UNL1        0.0577
     18 C          66.6350   92.7628   16.0225 C.3     1  UNL1        0.0173
     19 C          62.8144   84.5575   11.9068 C.ar    1  UNL1        0.1024
     20 C          63.3844   83.7758   10.7605 C.ar    1  UNL1        0.0414
     21 C          63.7710   82.3390   10.9510 C.ar    1  UNL1        0.1023
     22 N          63.5876   81.6840   12.2879 N.ar    1  UNL1       -0.2224
     23 C          63.0176   82.4657   13.4342 C.ar    1  UNL1        0.1989
     24 N          62.6310   83.9024   13.2437 N.ar    1  UNL1       -0.2224
@<TRIPOS>BOND
     1    16    17    1
     2    17    18    1
     3    17     9    1
     4     9    10    1
     5    10    11    1
     6    11    12    1
     7    12     1    1
     8     1     2   ar
     9     2     3   ar
    10     3    19    1
    11    19    20   ar
    12    20    21   ar
    13    21    22   ar
    14    22    23   ar
    15    23    24   ar
    16     3     4   ar
    17     4     5   ar
    18     5     6    2
    19     5     7   ar
    20     7     8    1
    21    12    13    1
    22    13    14    1
    23    13    15    1
    24    15     9    1
    25     7     1   ar
    26    24    19   ar
@<TRIPOS>MOLECULE
*****
 24 26 0 0 0
SMALL
GASTEIGER

@<TRIPOS>ATOM
      1 C          63.8914   87.8151   14.8420 C.ar    1  UNL1        0.2035
      2 N          64.0329   86.5216   14.0958 N.ar    1  UNL1       -0.2133
      3 C          63.6105   85.2343   14.7396 C.ar    1  UNL1        0.1065
      4 C          63.0466   85.2405   16.1295 C.ar    1  UNL1        0.0815
      5 C          62.9050   86.5340   16.8756 C.ar    1  UNL1        0.2646
      6 O          62.3411   86.5403   18.2656 O.2     1  UNL1       -0.2668
      7 N          63.3274   87.8213   16.2319 N.ar    1  UNL1       -0.2667
      8 C          63.1859   89.1149   16.9781 C.3     1  UNL1        0.1363
      9 N          65.1586   91.6770   12.9107 N.3     1  UNL1       -0.2711
     10 C          65.7883   91.2415   14.2005 C.3     1  UNL1        0.0939
     11 C          65.3659   89.9542   14.8443 C.3     1  UNL1        0.1108
     12 N          64.3138   89.1024   14.1982 N.pl3   1  UNL1       -0.2783
     13 C          63.6841   89.5380   12.9084 C.3     1  UNL1        0.0915
     14 C          62.6319   88.6862   12.2622 C.3     1  UNL1        0.0230
     15 C          64.1065   90.8253   12.2646 C.3     1  UNL1        0.0921
     16 C          66.3167   93.9974   13.0678 C.3     1  UNL1        0.0173
     17 C          65.5810   92.9643   12.2669 C.3     1  UNL1        0.0577
     18 C          65.2677   93.2186   10.8222 C.3     1  UNL1        0.0173
     19 C          63.7520   83.9408   13.9933 C.ar    1  UNL1        0.1024
     20 C          64.1792   83.9473   12.5555 C.ar    1  UNL1        0.0414
     21 C          64.3208   82.6537   11.8093 C.ar    1  UNL1        0.1023
     22 N          64.0351   81.3538   12.5010 N.ar    1  UNL1       -0.2224
     23 C          63.6078   81.3473   13.9389 C.ar    1  UNL1        0.1989
     24 N          63.4663   82.6408   14.6850 N.ar    1  UNL1       -0.2224
@<TRIPOS>BOND
     1    16    17    1
     2    17    18    1
     3    17     9    1
     4     9    10    1
     5    10    11    1
     6    11    12    1
     7    12     1    1
     8     1     2   ar
     9     2     3   ar
    10     3    19    1
    11    19    20   ar
    12    20    21   ar
    13    21    22   ar
    14    22    23   ar
    15    23    24   ar
    16     3     4   ar
    17     4     5   ar
    18     5     6    2
    19     5     7   ar
    20     7     8    1
    21    12    13    1
    22    13    14    1
    23    13    15    1
    24    15     9    1
    25     7     1   ar
    26    24    19   ar
@<TRIPOS>MOLECULE
*****
 24 26 0 0 0
SMALL
GASTEIGER

@<TRIPOS>ATOM
      1 C          62.3080   87.5076   11.4898 C.ar    1  UNL1        0.2035
      2 N          63.2766   88.4111   12.1936 N.ar    1  UNL1       -0.2133
      3 C          63.0868   89.8982   12.1443 C.ar    1  UNL1        0.1065
      4 C          61.9283   90.4819   11.3911 C.ar    1  UNL1        0.0815
      5 C          60.9597   89.5784   10.6872 C.ar    1  UNL1        0.2646
      6 O          59.8012   90.1620    9.9340 O.2     1  UNL1       -0.2668
      7 N          61.1496   88.0913   10.7366 N.ar    1  UNL1       -0.2667
      8 C          60.1809   87.1878   10.0326 C.3     1  UNL1        0.1363
      9 N          62.8775   83.0463   11.6378 N.3     1  UNL1       -0.2711
     10 C          62.5684   83.8050   12.8942 C.3     1  UNL1        0.0939
     11 C          62.3786   85.2921   12.8449 C.3     1  UNL1        0.1108
     12 N          62.4978   86.0205   11.5391 N.pl3   1  UNL1       -0.2783
     13 C          62.8068   85.2618   10.2826 C.3     1  UNL1        0.0915
     14 C          62.9260   85.9902    8.9767 C.3     1  UNL1        0.0230
     15 C          62.9967   83.7746   10.3320 C.3     1  UNL1        0.0921
     16 C          63.1161   80.8527   13.0094 C.3     1  UNL1        0.0173
     17 C          63.0673   81.5591   11.6871 C.3     1  UNL1        0.0577
     18 C          63.2083   80.7784   10.4141 C.3     1  UNL1        0.0173
     19 C          64.0555   90.8017   12.8482 C.ar    1  UNL1        0.1024
     20 C          64.3462   90.5996   14.3058 C.ar    1  UNL1        0.0414
     21 C          65.3149   91.5031   15.0097 C.ar    1  UNL1        0.1023
     22 N          65.9928   92.6087   14.2560 N.ar    1  UNL1       -0.2224
     23 C          65.7020   92.8108   12.7983 C.ar    1  UNL1        0.1989
     24 N          64.7333   91.9073   12.0945 N.ar    1  UNL1       -0.2224
@<TRIPOS>BOND
     1    16    17    1
     2    17    18    1
     3    17     9    1
     4     9    10    1
     5    10    11    1
     6    11    12    1
     7    12     1    1
     8     1     2   ar
     9     2     3   ar
    10     3    19    1
    11    19    20   ar
    12    20    21   ar
    13    21    22   ar
    14    22    23   ar
    15    23    24   ar
    16     3     4   ar
    17     4     5   ar
    18     5     6    2
    19     5     7   ar
    20     7     8    1
    21    12    13    1
    22    13    14    1
    23    13    15    1
    24    15     9    1
    25     7     1   ar
    26    24    19   ar
@<TRIPOS>MOLECULE
*****
 24 26 0 0 0
SMALL
GASTEIGER

@<TRIPOS>ATOM
      1 C          62.6826   88.6884   12.0919 C.ar    1  UNL1        0.2035
      2 N          63.1494   87.2634   12.0534 N.ar    1  UNL1       -0.2133
      3 C          62.2983   86.2127   11.4041 C.ar    1  UNL1        0.1065
      4 C          60.9803   86.5870   10.7934 C.ar    1  UNL1        0.0815
      5 C          60.5136   88.0120   10.8320 C.ar    1  UNL1        0.2646
      6 O          59.1956   88.3863   10.2213 O.2     1  UNL1       -0.2668
      7 N          61.3647   89.0627   11.4813 N.ar    1  UNL1       -0.2667
      8 C          60.8979   90.4877   11.5198 C.3     1  UNL1        0.1363
      9 N          65.2361   91.8405   14.0398 N.3     1  UNL1       -0.2711
     10 C          64.7143   90.6915   14.8505 C.3     1  UNL1        0.0939
     11 C          63.8631   89.6408   14.2013 C.3     1  UNL1        0.1108
     12 N          63.5338   89.7391   12.7412 N.pl3   1  UNL1       -0.2783
     13 C          64.0556   90.8881   11.9304 C.3     1  UNL1        0.0915
     14 C          63.7263   90.9864   10.4703 C.3     1  UNL1        0.0230
     15 C          64.9068   91.9388   12.5797 C.3     1  UNL1        0.0921
     16 C          66.5489   94.0779   13.8962 C.3     1  UNL1        0.0173
     17 C          66.0872   92.8912   14.6890 C.3     1  UNL1        0.0577
     18 C          66.4768   92.7553   16.1311 C.3     1  UNL1        0.0173
     19 C          62.7651   84.7877   11.3655 C.ar    1  UNL1        0.1024
     20 C          63.5030   84.2724   10.1656 C.ar    1  UNL1        0.0414
     21 C          63.9698   82.8473   10.1270 C.ar    1  UNL1        0.1023
     22 N          63.6987   81.9377   11.2885 N.ar    1  UNL1       -0.2224
     23 C          62.9608   82.4530   12.4885 C.ar    1  UNL1        0.1989
     24 N          62.4940   83.8780   12.5270 N.ar    1  UNL1       -0.2224
@<TRIPOS>BOND
     1    16    17    1
     2    17    18    1
     3    17     9    1
     4     9    10    1
     5    10    11    1
     6    11    12    1
     7    12     1    1
     8     1     2   ar
     9     2     3   ar
    10     3    19    1
    11    19    20   ar
    12    20    21   ar
    13    21    22   ar
    14    22    23   ar
    15    23    24   ar
    16     3     4   ar
    17     4     5   ar
    18     5     6    2
    19     5     7   ar
    20     7     8    1
    21    12    13    1
    22    13    14    1
    23    13    15    1
    24    15     9    1
    25     7     1   ar
    26    24    19   ar
@<TRIPOS>MOLECULE
*****
 24 26 0 0 0
SMALL
GASTEIGER

@<TRIPOS>ATOM
      1 C          64.4211   89.8846   14.0030 C.ar    1  UNL1        0.2035
      2 N          65.0775   90.7244   12.9476 N.ar    1  UNL1       -0.2133
      3 C          65.4670   92.1408   13.2510 C.ar    1  UNL1        0.1065
      4 C          65.2002   92.7174   14.6098 C.ar    1  UNL1        0.0815
      5 C          64.5438   91.8776   15.6652 C.ar    1  UNL1        0.2646
      6 O          64.2769   92.4542   17.0240 O.2     1  UNL1       -0.2668
      7 N          64.1543   90.4612   15.3618 N.ar    1  UNL1       -0.2667
      8 C          63.4979   89.6214   16.4172 C.3     1  UNL1        0.1363
      9 N          63.2525   85.6354   13.0928 N.3     1  UNL1       -0.2711
     10 C          64.0935   85.9405   14.2968 C.3     1  UNL1        0.0939
     11 C          64.4830   87.3569   14.6002 C.3     1  UNL1        0.1108
     12 N          64.0316   88.4682   13.6996 N.pl3   1  UNL1       -0.2783
     13 C          63.1906   88.1631   12.4956 C.3     1  UNL1        0.0915
     14 C          62.7391   89.2745   11.5950 C.3     1  UNL1        0.0230
     15 C          62.8010   86.7467   12.1922 C.3     1  UNL1        0.0921
     16 C          62.8316   83.7375   11.3692 C.3     1  UNL1        0.0173
     17 C          62.8629   84.2190   12.7894 C.3     1  UNL1        0.0577
     18 C          62.5048   83.2840   13.9063 C.3     1  UNL1        0.0173
     19 C          66.1234   92.9806   12.1956 C.ar    1  UNL1        0.1024
     20 C          66.9066   92.3264   11.0962 C.ar    1  UNL1        0.0414
     21 C          67.5630   93.1663   10.0408 C.ar    1  UNL1        0.1023
     22 N          67.4362   94.6602   10.0847 N.ar    1  UNL1       -0.2224
     23 C          66.6530   95.3144   11.1842 C.ar    1  UNL1        0.1989
     24 N          65.9966   94.4746   12.2396 N.ar    1  UNL1       -0.2224
@<TRIPOS>BOND
     1    16    17    1
     2    17    18    1
     3    17     9    1
     4     9    10    1
     5    10    11    1
     6    11    12    1
     7    12     1    1
     8     1     2   ar
     9     2     3   ar
    10     3    19    1
    11    19    20   ar
    12    20    21   ar
    13    21    22   ar
    14    22    23   ar
    15    23    24   ar
    16     3     4   ar
    17     4     5   ar
    18     5     6    2
    19     5     7   ar
    20     7     8    1
    21    12    13    1
    22    13    14    1
    23    13    15    1
    24    15     9    1
    25     7     1   ar
    26    24    19   ar
@<TRIPOS>MOLECULE
*****
 24 26 0 0 0
SMALL
GASTEIGER

@<TRIPOS>ATOM
      1 C          62.6457   87.8068   11.9394 C.ar    1  UNL1        0.2035
      2 N          63.6418   88.7288   12.5778 N.ar    1  UNL1       -0.2133
      3 C          63.4554   90.2143   12.4854 C.ar    1  UNL1        0.1065
      4 C          62.2729   90.7778   11.7546 C.ar    1  UNL1        0.0815
      5 C          61.2767   89.8558   11.1163 C.ar    1  UNL1        0.2646
      6 O          60.0941   90.4192   10.3855 O.2     1  UNL1       -0.2668
      7 N          61.4631   88.3703   11.2087 N.ar    1  UNL1       -0.2667
      8 C          60.4669   87.4482   10.5703 C.3     1  UNL1        0.1363
      9 N          63.2049   83.3503   12.2166 N.3     1  UNL1       -0.2711
     10 C          62.5538   83.9506   11.0060 C.3     1  UNL1        0.0939
     11 C          62.3674   85.4361   10.9136 C.3     1  UNL1        0.1108
     12 N          62.8321   86.3213   12.0318 N.pl3   1  UNL1       -0.2783
     13 C          63.4831   85.7209   13.2425 C.3     1  UNL1        0.0915
     14 C          63.9478   86.6061   14.3608 C.3     1  UNL1        0.0230
     15 C          63.6695   84.2354   13.3349 C.3     1  UNL1        0.0921
     16 C          63.1791   81.0055   11.0980 C.3     1  UNL1        0.0173
     17 C          63.3913   81.8648   12.3090 C.3     1  UNL1        0.0577
     18 C          63.7898   81.2385   13.6124 C.3     1  UNL1        0.0173
     19 C          64.4516   91.1363   13.1238 C.ar    1  UNL1        0.1024
     20 C          64.8262   90.9541   14.5648 C.ar    1  UNL1        0.0414
     21 C          65.8224   91.8762   15.2032 C.ar    1  UNL1        0.1023
     22 N          66.4440   92.9804   14.4005 N.ar    1  UNL1       -0.2224
     23 C          66.0695   93.1625   12.9594 C.ar    1  UNL1        0.1989
     24 N          65.0733   92.2405   12.3211 N.ar    1  UNL1       -0.2224
@<TRIPOS>BOND
     1    16    17    1
     2    17    18    1
     3    17     9    1
     4     9    10    1
     5    10    11    1
     6    11    12    1
     7    12     1    1
     8     1     2   ar
     9     2     3   ar
    10     3    19    1
    11    19    20   ar
    12    20    21   ar
    13    21    22   ar
    14    22    23   ar
    15    23    24   ar
    16     3     4   ar
    17     4     5   ar
    18     5     6    2
    19     5     7   ar
    20     7     8    1
    21    12    13    1
    22    13    14    1
    23    13    15    1
    24    15     9    1
    25     7     1   ar
    26    24    19   ar
@<TRIPOS>MOLECULE
*****
 24 26 0 0 0
SMALL
GASTEIGER

@<TRIPOS>ATOM
      1 C          64.3794   89.6782   14.1595 C.ar    1  UNL1        0.2035
      2 N          64.3094   88.3194   13.5282 N.ar    1  UNL1       -0.2133
      3 C          63.8220   87.1462   14.3256 C.ar    1  UNL1        0.1065
      4 C          63.4045   87.3318   15.7544 C.ar    1  UNL1        0.0815
      5 C          63.4745   88.6906   16.3856 C.ar    1  UNL1        0.2646
      6 O          63.0571   88.8763   17.8144 O.2     1  UNL1       -0.2668
      7 N          63.9620   89.8639   15.5882 N.ar    1  UNL1       -0.2667
      8 C          64.0320   91.2228   16.2195 C.3     1  UNL1        0.1363
      9 N          65.8418   93.1979   11.7671 N.3     1  UNL1       -0.2711
     10 C          66.5999   92.7493   12.9812 C.3     1  UNL1        0.0939
     11 C          66.1124   91.5760   13.7786 C.3     1  UNL1        0.1108
     12 N          64.8669   90.8515   13.3620 N.pl3   1  UNL1       -0.2783
     13 C          64.1088   91.3002   12.1480 C.3     1  UNL1        0.0915
     14 C          62.8631   90.5756   11.7314 C.3     1  UNL1        0.0230
     15 C          64.5962   92.4734   11.3506 C.3     1  UNL1        0.0921
     16 C          67.0832   94.1485    9.6922 C.3     1  UNL1        0.0173
     17 C          66.3292   94.3712   10.9697 C.3     1  UNL1        0.0577
     18 C          66.0628   95.7671   11.4497 C.3     1  UNL1        0.0173
     19 C          63.7520   85.7872   13.6943 C.ar    1  UNL1        0.1024
     20 C          64.5670   84.6583   14.2520 C.ar    1  UNL1        0.0414
     21 C          64.4970   83.2993   13.6207 C.ar    1  UNL1        0.1023
     22 N          63.6119   83.0695   12.4316 N.ar    1  UNL1       -0.2224
     23 C          62.7969   84.1985   11.8740 C.ar    1  UNL1        0.1989
     24 N          62.8669   85.5574   12.5053 N.ar    1  UNL1       -0.2224
@<TRIPOS>BOND
     1    16    17    1
     2    17    18    1
     3    17     9    1
     4     9    10    1
     5    10    11    1
     6    11    12    1
     7    12     1    1
     8     1     2   ar
     9     2     3   ar
    10     3    19    1
    11    19    20   ar
    12    20    21   ar
    13    21    22   ar
    14    22    23   ar
    15    23    24   ar
    16     3     4   ar
    17     4     5   ar
    18     5     6    2
    19     5     7   ar
    20     7     8    1
    21    12    13    1
    22    13    14    1
    23    13    15    1
    24    15     9    1
    25     7     1   ar
    26    24    19   ar
@<TRIPOS>MOLECULE
*****
 24 26 0 0 0
SMALL
GASTEIGER

@<TRIPOS>ATOM
      1 C          45.2407   79.7872   17.5118 C.ar    1  UNL1        0.2035
      2 N          45.0063   79.9963   16.0451 N.ar    1  UNL1       -0.2133
      3 C          44.3427   81.2523   15.5632 C.ar    1  UNL1        0.1065
      4 C          43.9136   82.2992   16.5480 C.ar    1  UNL1        0.0815
      5 C          44.1481   82.0901   18.0147 C.ar    1  UNL1        0.2646
      6 O          43.7190   83.1370   18.9996 O.2     1  UNL1       -0.2668
      7 N          44.8117   80.8341   18.4966 N.ar    1  UNL1       -0.2667
      8 C          45.0461   80.6251   19.9634 C.3     1  UNL1        0.1363
      9 N          47.2314   76.0193   18.9575 N.3     1  UNL1       -0.2711
     10 C          45.7813   76.0019   18.5742 C.3     1  UNL1        0.0939
     11 C          45.1178   77.2579   18.0923 C.3     1  UNL1        0.1108
     12 N          45.9043   78.5313   17.9937 N.pl3   1  UNL1       -0.2783
     13 C          47.3544   78.5487   18.3769 C.3     1  UNL1        0.0915
     14 C          48.1410   79.8222   18.2783 C.3     1  UNL1        0.0230
     15 C          48.0179   77.2927   18.8588 C.3     1  UNL1        0.0921
     16 C          47.1387   73.4680   19.4391 C.3     1  UNL1        0.0173
     17 C          47.8950   74.7634   19.4394 C.3     1  UNL1        0.0577
     18 C          49.3148   74.8028   19.9216 C.3     1  UNL1        0.0173
     19 C          44.1082   81.4614   14.0964 C.ar    1  UNL1        0.1024
     20 C          43.9938   82.8519   13.5459 C.ar    1  UNL1        0.0414
     21 C          43.7593   83.0610   12.0791 C.ar    1  UNL1        0.1023
     22 N          43.6393   81.8794   11.1629 N.ar    1  UNL1       -0.2224
     23 C          43.7537   80.4888   11.7135 C.ar    1  UNL1        0.1989
     24 N          43.9882   80.2798   13.1802 N.ar    1  UNL1       -0.2224
@<TRIPOS>BOND
     1    16    17    1
     2    17    18    1
     3    17     9    1
     4     9    10    1
     5    10    11    1
     6    11    12    1
     7    12     1    1
     8     1     2   ar
     9     2     3   ar
    10     3    19    1
    11    19    20   ar
    12    20    21   ar
    13    21    22   ar
    14    22    23   ar
    15    23    24   ar
    16     3     4   ar
    17     4     5   ar
    18     5     6    2
    19     5     7   ar
    20     7     8    1
    21    12    13    1
    22    13    14    1
    23    13    15    1
    24    15     9    1
    25     7     1   ar
    26    24    19   ar
@<TRIPOS>MOLECULE
*****
 24 26 0 0 0
SMALL
GASTEIGER

@<TRIPOS>ATOM
      1 C          63.5361   86.6479   14.2910 C.ar    1  UNL1        0.2035
      2 N          63.8903   87.8190   13.4232 N.ar    1  UNL1       -0.2133
      3 C          64.0102   89.1884   14.0236 C.ar    1  UNL1        0.1065
      4 C          63.7758   89.3867   15.4918 C.ar    1  UNL1        0.0815
      5 C          63.4216   88.2156   16.3596 C.ar    1  UNL1        0.2646
      6 O          63.1872   88.4139   17.8279 O.2     1  UNL1       -0.2668
      7 N          63.3017   86.8463   15.7592 N.ar    1  UNL1       -0.2667
      8 C          62.9475   85.6752   16.6271 C.3     1  UNL1        0.1363
      9 N          63.1766   82.5399   12.4897 N.3     1  UNL1       -0.2711
     10 C          63.8814   82.7249   13.8008 C.3     1  UNL1        0.0939
     11 C          64.0012   84.0942   14.4012 C.3     1  UNL1        0.1108
     12 N          63.4163   85.2786   13.6906 N.pl3   1  UNL1       -0.2783
     13 C          62.7115   85.0936   12.3795 C.3     1  UNL1        0.0915
     14 C          62.1265   86.2780   11.6687 C.3     1  UNL1        0.0230
     15 C          62.5916   83.7242   11.7791 C.3     1  UNL1        0.0921
     16 C          63.3392   80.9638   10.4308 C.3     1  UNL1        0.0173
     17 C          63.0567   81.1705   11.8893 C.3     1  UNL1        0.0577
     18 C          62.6544   80.0079   12.7474 C.3     1  UNL1        0.0173
     19 C          64.3644   90.3594   13.1557 C.ar    1  UNL1        0.1024
     20 C          63.6487   90.5725   11.8548 C.ar    1  UNL1        0.0414
     21 C          64.0030   91.7436   10.9869 C.ar    1  UNL1        0.1023
     22 N          65.0729   92.7016   11.4200 N.ar    1  UNL1       -0.2224
     23 C          65.7886   92.4884   12.7210 C.ar    1  UNL1        0.1989
     24 N          65.4343   91.3174   13.5888 N.ar    1  UNL1       -0.2224
@<TRIPOS>BOND
     1    16    17    1
     2    17    18    1
     3    17     9    1
     4     9    10    1
     5    10    11    1
     6    11    12    1
     7    12     1    1
     8     1     2   ar
     9     2     3   ar
    10     3    19    1
    11    19    20   ar
    12    20    21   ar
    13    21    22   ar
    14    22    23   ar
    15    23    24   ar
    16     3     4   ar
    17     4     5   ar
    18     5     6    2
    19     5     7   ar
    20     7     8    1
    21    12    13    1
    22    13    14    1
    23    13    15    1
    24    15     9    1
    25     7     1   ar
    26    24    19   ar
