@<TRIPOS>MOLECULE
*****
 62 69 0 0 0
SMALL
GASTEIGER

@<TRIPOS>ATOM
      1 N          62.0803   94.9162   -3.4839 N.3     1  UNL1       -0.1862
      2 C          60.9629   94.5167   -4.4013 C.3     1  UNL1        0.1775
      3 C          59.6787   93.9888   -3.8336 C.2     1  UNL1        0.2452
      4 O          58.5613   93.5893   -4.7511 O.2     1  UNL1       -0.2732
      5 N          59.5120   93.8605   -2.3485 N.am    1  UNL1       -0.2541
      6 C          58.2279   93.3326   -1.7807 C.3     1  UNL1        0.1577
      7 C          58.0612   93.2042   -0.2956 C.2     1  UNL1        0.2445
      8 O          56.7770   92.6764    0.2722 O.2     1  UNL1       -0.2731
      9 N          59.1787   93.6038    0.6219 N.am    1  UNL1       -0.2705
     10 C          60.4628   94.1317    0.0542 C.3     1  UNL1        0.1359
     11 C          60.6295   94.2600   -1.4311 C.3     1  UNL1        0.1908
     12 N          61.9136   94.7879   -1.9988 N.am    1  UNL1       -0.1863
     13 C          63.0311   95.1874   -1.0813 C.2     1  UNL1        0.3191
     14 O          62.8644   95.0591    0.4038 O.2     1  UNL1       -0.2512
     15 N          64.3152   95.7153   -1.6491 N.am    1  UNL1       -0.2836
     16 H          64.4246   95.7995   -2.6238 H       1  UNL1        0.1513
     17 C          63.3644   95.4441   -4.0517 C.3     1  UNL1        0.1188
     18 C          64.5855   96.0191   -6.2717 C.2     1  UNL1       -0.0034
     19 C          63.7836   95.0621   -5.4403 C.2     1  UNL1       -0.0071
     20 C          57.1104   92.9331   -2.6981 C.3     1  UNL1        0.0556
     21 C          56.0224   93.9123   -3.0256 C.ar    1  UNL1       -0.0198
     22 C          55.1398   94.4450   -1.9360 C.ar    1  UNL1       -0.0011
     23 C          54.0518   95.4242   -2.2636 C.ar    1  UNL1        0.0363
     24 C          53.8464   95.8709   -3.6807 C.ar    1  UNL1        0.1337
     25 O          52.7584   96.8501   -4.0082 O.3     1  UNL1       -0.5055
     26 C          54.7290   95.3382   -4.7704 C.ar    1  UNL1        0.0363
     27 C          55.8171   94.3590   -4.4428 C.ar    1  UNL1       -0.0011
     28 H          52.2071   97.1828   -3.3275 H       1  UNL1        0.2922
     29 C          59.0119   93.4754    2.1071 C.3     1  UNL1        0.1217
     30 C          59.9058   92.5561    2.8855 C.ar    1  UNL1        0.0135
     31 C          61.3652   92.4675    2.5503 C.ar    1  UNL1       -0.0012
     32 C          62.2590   91.5482    3.3286 C.ar    1  UNL1       -0.0002
     33 C          61.6935   90.7175    4.4421 C.ar    1  UNL1        0.0016
     34 C          60.2341   90.8060    4.7773 C.ar    1  UNL1        0.0214
     35 C          59.3985   90.1144    5.8134 C.ar    1  UNL1        0.0722
     36 C          57.9882   90.6063    5.6753 C.ar    1  UNL1        0.0805
     37 N          57.9522   91.6019    4.5540 N.ar    1  UNL1       -0.3241
     38 C          56.7409   92.3438    4.0722 C.3     1  UNL1        0.1305
     39 C          59.3403   91.7253    3.9990 C.ar    1  UNL1        0.0577
     40 C          59.8874   89.1076    6.8121 C.2     1  UNL1        0.2510
     41 O          59.7935   87.6420    6.5071 O.2     1  UNL1       -0.2698
     42 N          60.4701   89.5665    8.1159 N.am    1  UNL1       -0.2791
     43 H          60.5317   90.5285    8.3161 H       1  UNL1        0.1552
     44 C          60.9589   88.5598    9.1147 C.ar    1  UNL1        0.0701
     45 C          62.0488   88.9271   10.0777 C.ar    1  UNL1        0.0191
     46 C          62.5377   87.9205   11.0765 C.ar    1  UNL1        0.0356
     47 C          61.9368   86.5466   11.1123 C.ar    1  UNL1        0.1319
     48 N          60.8470   86.1793   10.1493 N.ar    1  UNL1       -0.2279
     49 C          60.3580   87.1859    9.1505 C.ar    1  UNL1        0.1149
     50 N          62.4257   85.5399   12.1111 N.pl3   1  UNL1       -0.2882
     51 C          62.2042   85.3054   13.5760 C.3     1  UNL1        0.1231
     52 C          63.1170   84.1163   13.5237 C.3     1  UNL1        0.1499
     53 O          63.6058   83.1096   14.5224 O.3     1  UNL1       -0.3810
     54 C          63.3385   84.3508   12.0588 C.3     1  UNL1        0.1231
     55 H          64.2002   82.4811   14.0836 H       1  UNL1        0.2105
     56 C          65.4326   96.1148   -0.7317 C.3     1  UNL1        0.1177
     57 C          65.3662   95.7686    0.7263 C.ar    1  UNL1       -0.0025
     58 C          65.2240   94.3372    1.1516 C.ar    1  UNL1       -0.0026
     59 C          65.1576   93.9910    2.6095 C.ar    1  UNL1       -0.0003
     60 C          65.2334   95.0762    3.6423 C.ar    1  UNL1       -0.0000
     61 C          65.3756   96.5077    3.2171 C.ar    1  UNL1       -0.0003
     62 C          65.4420   96.8539    1.7591 C.ar    1  UNL1       -0.0026
@<TRIPOS>BOND
     1    18    19    2
     2    19    17    1
     3    17     1    1
     4     1     2    1
     5     2     3    1
     6     3     4    2
     7     3     5   am
     8     5     6    1
     9     6    20    1
    10    20    21    1
    11    21    22   ar
    12    22    23   ar
    13    23    24   ar
    14    24    25    1
    15    24    26   ar
    16    26    27   ar
    17     6     7    1
    18     7     8    2
    19     7     9   am
    20     9    29    1
    21    29    30    1
    22    30    31   ar
    23    31    32   ar
    24    32    33   ar
    25    33    34   ar
    26    34    35   ar
    27    35    40    1
    28    40    41    2
    29    40    42   am
    30    42    44    1
    31    44    45   ar
    32    45    46   ar
    33    46    47   ar
    34    47    50    1
    35    50    51    1
    36    51    52    1
    37    52    53    1
    38    52    54    1
    39    47    48   ar
    40    48    49   ar
    41    35    36   ar
    42    36    37   ar
    43    37    38    1
    44    37    39   ar
    45     9    10    1
    46    11    10    1
    47    11    12    1
    48    12    13   am
    49    13    14    2
    50    13    15   am
    51    15    56    1
    52    56    57    1
    53    57    58   ar
    54    58    59   ar
    55    59    60   ar
    56    60    61   ar
    57    61    62   ar
    58    12     1    1
    59    62    57   ar
    60    11     5    1
    61    27    21   ar
    62    39    30   ar
    63    39    34   ar
    64    49    44   ar
    65    54    50    1
    66    25    28    1
    67    42    43    1
    68    53    55    1
    69    15    16    1
@<TRIPOS>MOLECULE
*****
 62 69 0 0 0
SMALL
GASTEIGER

@<TRIPOS>ATOM
      1 N          62.2891   95.0630   -3.5265 N.3     1  UNL1       -0.1862
      2 C          61.1726   94.9976   -4.5260 C.3     1  UNL1        0.1775
      3 C          59.7880   94.6304   -4.0809 C.2     1  UNL1        0.2452
      4 O          58.6715   94.5650   -5.0805 O.2     1  UNL1       -0.2732
      5 N          59.5199   94.3287   -2.6363 N.am    1  UNL1       -0.2541
      6 C          58.1353   93.9616   -2.1912 C.3     1  UNL1        0.1577
      7 C          57.8671   93.6598   -0.7465 C.2     1  UNL1        0.2445
      8 O          56.4825   93.2927   -0.3015 O.2     1  UNL1       -0.2731
      9 N          58.9837   93.7252    0.2531 N.am    1  UNL1       -0.2705
     10 C          60.3683   94.0924   -0.1920 C.3     1  UNL1        0.1359
     11 C          60.6363   94.3941   -1.6367 C.3     1  UNL1        0.1908
     12 N          62.0209   94.7612   -2.0818 N.am    1  UNL1       -0.1863
     13 C          63.1375   94.8266   -1.0822 C.2     1  UNL1        0.3191
     14 O          62.8693   94.5249    0.3625 O.2     1  UNL1       -0.2512
     15 N          64.5220   95.1937   -1.5273 N.am    1  UNL1       -0.2836
     16 H          64.6980   95.3918   -2.4755 H       1  UNL1        0.1513
     17 C          63.6737   95.4301   -3.9715 C.3     1  UNL1        0.1188
     18 C          65.0966   94.7136   -6.0238 C.2     1  UNL1       -0.0034
     19 C          63.9882   95.5346   -5.4344 C.2     1  UNL1       -0.0071
     20 C          57.0188   93.8962   -3.1907 C.3     1  UNL1        0.0556
     21 C          56.3864   92.5774   -3.5236 C.ar    1  UNL1       -0.0198
     22 C          56.1767   91.5534   -2.4478 C.ar    1  UNL1       -0.0011
     23 C          55.5443   90.2345   -2.7806 C.ar    1  UNL1        0.0363
     24 C          55.1216   89.9397   -4.1893 C.ar    1  UNL1        0.1337
     25 O          54.4892   88.6209   -4.5221 O.3     1  UNL1       -0.5055
     26 C          55.3313   90.9637   -5.2652 C.ar    1  UNL1        0.0363
     27 C          55.9637   92.2826   -4.9323 C.ar    1  UNL1       -0.0011
     28 H          54.3582   87.9812   -3.8501 H       1  UNL1        0.2922
     29 C          58.7155   93.4235    1.6977 C.3     1  UNL1        0.1217
     30 C          59.7321   92.6762    2.5091 C.ar    1  UNL1        0.0135
     31 C          61.1701   92.6639    2.0826 C.ar    1  UNL1       -0.0012
     32 C          62.1867   91.9166    2.8939 C.ar    1  UNL1       -0.0002
     33 C          61.7652   91.1816    4.1316 C.ar    1  UNL1        0.0016
     34 C          60.3271   91.1939    4.5581 C.ar    1  UNL1        0.0214
     35 C          59.6202   90.5661    5.7226 C.ar    1  UNL1        0.0722
     36 C          58.1667   90.9254    5.6310 C.ar    1  UNL1        0.0805
     37 N          57.9754   91.7752    4.4099 N.ar    1  UNL1       -0.3241
     38 C          56.6769   92.3570    3.9353 C.3     1  UNL1        0.1305
     39 C          59.3106   91.9412    3.7468 C.ar    1  UNL1        0.0577
     40 C          60.2552   89.7264    6.7911 C.2     1  UNL1        0.2510
     41 O          61.4234   90.2580    7.5675 O.2     1  UNL1       -0.2698
     42 N          59.7221   88.3551    7.0833 N.am    1  UNL1       -0.2791
     43 H          58.9553   88.0062    6.5737 H       1  UNL1        0.1552
     44 C          60.3570   87.5154    8.1517 C.ar    1  UNL1        0.0701
     45 C          61.2852   86.3988    7.7754 C.ar    1  UNL1        0.0191
     46 C          61.9202   85.5590    8.8438 C.ar    1  UNL1        0.0356
     47 C          61.6271   85.8359   10.2885 C.ar    1  UNL1        0.1319
     48 N          60.6989   86.9525   10.6649 N.ar    1  UNL1       -0.2279
     49 C          60.0639   87.7923    9.5965 C.ar    1  UNL1        0.1149
     50 N          62.2621   84.9961   11.3570 N.pl3   1  UNL1       -0.2882
     51 C          62.3520   83.5251   11.6365 C.3     1  UNL1        0.1231
     52 C          63.1600   83.8085   12.8680 C.3     1  UNL1        0.1499
     53 O          63.7950   82.9687   13.9365 O.3     1  UNL1       -0.3810
     54 C          63.0701   85.2794   12.5886 C.3     1  UNL1        0.1231
     55 H          64.2414   83.5441   14.5772 H       1  UNL1        0.2105
     56 C          65.6385   95.2591   -0.5277 C.3     1  UNL1        0.1177
     57 C          65.3295   95.3805    0.9351 C.ar    1  UNL1       -0.0025
     58 C          65.3101   96.7308    1.5880 C.ar    1  UNL1       -0.0026
     59 C          65.0010   96.8522    3.0508 C.ar    1  UNL1       -0.0003
     60 C          64.7114   95.6234    3.8606 C.ar    1  UNL1       -0.0000
     61 C          64.7307   94.2730    3.2077 C.ar    1  UNL1       -0.0003
     62 C          65.0398   94.1516    1.7449 C.ar    1  UNL1       -0.0026
@<TRIPOS>BOND
     1    18    19    2
     2    19    17    1
     3    17     1    1
     4     1     2    1
     5     2     3    1
     6     3     4    2
     7     3     5   am
     8     5     6    1
     9     6    20    1
    10    20    21    1
    11    21    22   ar
    12    22    23   ar
    13    23    24   ar
    14    24    25    1
    15    24    26   ar
    16    26    27   ar
    17     6     7    1
    18     7     8    2
    19     7     9   am
    20     9    29    1
    21    29    30    1
    22    30    31   ar
    23    31    32   ar
    24    32    33   ar
    25    33    34   ar
    26    34    35   ar
    27    35    40    1
    28    40    41    2
    29    40    42   am
    30    42    44    1
    31    44    45   ar
    32    45    46   ar
    33    46    47   ar
    34    47    50    1
    35    50    51    1
    36    51    52    1
    37    52    53    1
    38    52    54    1
    39    47    48   ar
    40    48    49   ar
    41    35    36   ar
    42    36    37   ar
    43    37    38    1
    44    37    39   ar
    45     9    10    1
    46    11    10    1
    47    11    12    1
    48    12    13   am
    49    13    14    2
    50    13    15   am
    51    15    56    1
    52    56    57    1
    53    57    58   ar
    54    58    59   ar
    55    59    60   ar
    56    60    61   ar
    57    61    62   ar
    58    12     1    1
    59    62    57   ar
    60    11     5    1
    61    27    21   ar
    62    39    30   ar
    63    39    34   ar
    64    49    44   ar
    65    54    50    1
    66    25    28    1
    67    42    43    1
    68    53    55    1
    69    15    16    1
