@<TRIPOS>MOLECULE
*****
 46 49 0 0 0
SMALL
GASTEIGER

@<TRIPOS>ATOM
      1 C          63.8225   90.8445   12.4465 C.3     1  UNL1        0.0736
      2 C          63.1224   90.8319   11.1200 C.3     1  UNL1        0.0217
      3 C          62.7064   89.4205   10.8288 C.3     1  UNL1        0.0283
      4 C          63.1496   88.5608   11.9753 C.3     1  UNL1        0.1361
      5 C          63.0141   87.0901   12.2380 C.ar    1  UNL1        0.0114
      6 C          62.3243   86.2101   11.2382 C.ar    1  UNL1       -0.0002
      7 C          62.1888   84.7395   11.5010 C.ar    1  UNL1        0.0177
      8 C          62.7432   84.1491   12.7636 C.ar    1  UNL1        0.1045
      9 N          63.4329   85.0291   13.7634 N.ar    1  UNL1       -0.2511
     10 C          63.5684   86.4997   13.5006 C.ar    1  UNL1        0.0562
     11 C          64.2582   87.3798   14.5004 C.3     1  UNL1        0.0456
     12 C          64.3937   88.8504   14.2376 C.3     1  UNL1        0.0099
     13 C          63.8394   89.4408   12.9751 C.3     1  UNL1        0.0430
     14 C          65.6388   92.6978   12.5738 C.2     1  UNL1        0.2482
     15 O          66.2925   92.1417   11.3435 O.2     1  UNL1       -0.2725
     16 N          64.4039   92.0493   13.1253 N.am    1  UNL1       -0.3040
     17 H          63.9749   92.4143   13.9327 H       1  UNL1        0.1494
     18 C          66.8016   95.1073   13.9312 C.3     1  UNL1        0.0406
     19 C          66.2202   93.9026   13.2525 C.3     1  UNL1        0.1782
     20 O          66.0723   94.6888   11.9836 O.3     1  UNL1       -0.3765
     21 H          66.3949   95.5928   12.1239 H       1  UNL1        0.2109
     22 C          66.3681   93.1163   14.5213 C.3     1  UNL1        0.1864
     23 S          67.7162   92.9757   15.1636 S.O2    1  UNL1       -0.0054
     24 C          69.0644   92.8351   15.8060 C.3     1  UNL1        0.1762
     25 O          68.3015   92.5643   13.8452 O.2     1  UNL1       -0.1728
     26 O          67.1310   93.3871   16.4821 O.2     1  UNL1       -0.1728
     27 S          62.4383   87.8099   10.8889 S.O2    1  UNL1        0.0091
     28 O          63.0217   87.5922   10.3911 O.2     1  UNL1       -0.1684
     29 O          61.1297   88.0448   11.5832 O.2     1  UNL1       -0.1684
     30 C          61.7270   87.0590    9.8024 C.ar    1  UNL1        0.1060
     31 C          60.2404   87.1885    9.6508 C.ar    1  UNL1        0.0207
     32 C          59.5291   86.4376    8.5644 C.ar    1  UNL1        0.0310
     33 C          60.3045   85.5573    7.6296 C.ar    1  UNL1        0.1402
     34 F          59.5932   84.8064    6.5432 F       1  UNL1       -0.2042
     35 C          61.7912   85.4279    7.7813 C.ar    1  UNL1        0.0310
     36 C          62.5024   86.1787    8.8677 C.ar    1  UNL1        0.0207
     37 C          62.6077   82.6784   13.0263 C.3     1  UNL1        0.3398
     38 F          61.8038   82.9726   14.2580 F       1  UNL1       -0.2160
     39 C          62.4722   81.2079   13.2891 C.3     1  UNL1        0.4378
     40 F          62.3367   79.7372   13.5518 F       1  UNL1       -0.1666
     41 F          60.9820   81.3595   13.3694 F       1  UNL1       -0.1666
     42 F          63.9347   80.8780   13.2414 F       1  UNL1       -0.1666
     43 C          63.4115   82.3842   11.7946 C.3     1  UNL1        0.4378
     44 F          64.2154   82.0901   10.5628 F       1  UNL1       -0.1666
     45 F          62.3881   81.5291   11.1082 F       1  UNL1       -0.1666
     46 F          64.7024   83.1141   12.0207 F       1  UNL1       -0.1666
@<TRIPOS>BOND
     1    19    18    1
     2    19    20    1
     3    19    22    1
     4    22    23    1
     5    23    24    1
     6    23    25    2
     7    23    26    2
     8    19    14    1
     9    14    15    2
    10    14    16   am
    11     1    16    1
    12     1     2    1
    13     2     3    1
    14     3     4    1
    15     4    27    1
    16    27    28    2
    17    27    29    2
    18    27    30    1
    19    30    31   ar
    20    31    32   ar
    21    32    33   ar
    22    33    34    1
    23    33    35   ar
    24    35    36   ar
    25     4     5    1
    26     5     6   ar
    27     6     7   ar
    28     7     8   ar
    29     8    37    1
    30    37    38    1
    31    37    39    1
    32    39    40    1
    33    39    41    1
    34    39    42    1
    35    37    43    1
    36    43    44    1
    37    43    45    1
    38    43    46    1
    39     8     9   ar
    40     9    10   ar
    41    10    11    1
    42    11    12    1
    43    13    12    1
    44    13     1    1
    45    13     4    1
    46    36    30   ar
    47    10     5   ar
    48    20    21    1
    49    16    17    1
@<TRIPOS>MOLECULE
*****
 46 49 0 0 0
SMALL
GASTEIGER

@<TRIPOS>ATOM
      1 C          63.6986   91.4236   11.4628 C.3     1  UNL1        0.0736
      2 C          63.0460   91.1693   10.1364 C.3     1  UNL1        0.0217
      3 C          62.6730   89.7177   10.0741 C.3     1  UNL1        0.0283
      4 C          63.0951   89.0750   11.3620 C.3     1  UNL1        0.1361
      5 C          62.9841   87.6659   11.8641 C.ar    1  UNL1        0.0114
      6 C          62.3502   86.6116   11.0059 C.ar    1  UNL1       -0.0002
      7 C          62.2393   85.2025   11.5080 C.ar    1  UNL1        0.0177
      8 C          62.7622   84.8477   12.8684 C.ar    1  UNL1        0.1045
      9 N          63.3961   85.9020   13.7266 N.ar    1  UNL1       -0.2511
     10 C          63.5070   87.3111   13.2245 C.ar    1  UNL1        0.0562
     11 C          64.1410   88.3654   14.0828 C.3     1  UNL1        0.0456
     12 C          64.2519   89.7745   13.5807 C.3     1  UNL1        0.0099
     13 C          63.7290   90.1293   12.2203 C.3     1  UNL1        0.0430
     14 C          65.5272   93.2685   11.4142 C.2     1  UNL1        0.2482
     15 O          66.2971   92.4787   10.3977 O.2     1  UNL1       -0.2725
     16 N          64.2280   92.7411   11.9468 N.am    1  UNL1       -0.3040
     17 H          63.7227   93.2595   12.6140 H       1  UNL1        0.1494
     18 C          66.5861   95.9034   12.3820 C.3     1  UNL1        0.0406
     19 C          66.0567   94.5860   11.8982 C.3     1  UNL1        0.1782
     20 O          66.5825   93.9203   13.1352 O.3     1  UNL1       -0.3765
     21 H          67.0186   94.5800   13.6969 H       1  UNL1        0.2109
     22 C          65.5309   95.2516   10.6611 C.3     1  UNL1        0.1864
     23 S          66.4721   95.9614    9.7336 S.O2    1  UNL1       -0.0054
     24 C          67.4133   96.6711    8.8060 C.3     1  UNL1        0.1762
     25 O          65.3549   96.8559    9.2844 O.2     1  UNL1       -0.1728
     26 O          67.5893   95.0668   10.1827 O.2     1  UNL1       -0.1728
     27 S          62.4398   88.1330   10.3960 S.O2    1  UNL1        0.0091
     28 O          63.0383   87.8870    9.9304 O.2     1  UNL1       -0.1684
     29 O          61.1158   88.3751   11.0579 O.2     1  UNL1       -0.1684
     30 C          61.7845   87.1909    9.4300 C.ar    1  UNL1        0.1060
     31 C          60.2981   87.2323    9.2333 C.ar    1  UNL1        0.0207
     32 C          59.6428   86.2903    8.2673 C.ar    1  UNL1        0.0310
     33 C          60.4740   85.3068    7.4980 C.ar    1  UNL1        0.1402
     34 F          59.8188   84.3647    6.5319 F       1  UNL1       -0.2042
     35 C          61.9605   85.2654    7.6947 C.ar    1  UNL1        0.0310
     36 C          62.6157   86.2074    8.6607 C.ar    1  UNL1        0.0207
     37 C          62.6512   83.4386   13.3705 C.3     1  UNL1        0.3398
     38 F          62.0075   83.9381   14.6298 F       1  UNL1       -0.2160
     39 C          62.5403   82.0295   13.8726 C.3     1  UNL1        0.4378
     40 F          62.4293   80.6204   14.3747 F       1  UNL1       -0.1666
     41 F          61.0791   82.2394   14.1387 F       1  UNL1       -0.1666
     42 F          63.9770   81.6494   13.6697 F       1  UNL1       -0.1666
     43 C          63.2950   82.9391   12.1111 C.3     1  UNL1        0.4378
     44 F          63.9388   82.4396   10.8517 F       1  UNL1       -0.1666
     45 F          62.1614   82.0667   11.6598 F       1  UNL1       -0.1666
     46 F          64.6358   83.6116   12.0975 F       1  UNL1       -0.1666
@<TRIPOS>BOND
     1    19    18    1
     2    19    20    1
     3    19    22    1
     4    22    23    1
     5    23    24    1
     6    23    25    2
     7    23    26    2
     8    19    14    1
     9    14    15    2
    10    14    16   am
    11     1    16    1
    12     1     2    1
    13     2     3    1
    14     3     4    1
    15     4    27    1
    16    27    28    2
    17    27    29    2
    18    27    30    1
    19    30    31   ar
    20    31    32   ar
    21    32    33   ar
    22    33    34    1
    23    33    35   ar
    24    35    36   ar
    25     4     5    1
    26     5     6   ar
    27     6     7   ar
    28     7     8   ar
    29     8    37    1
    30    37    38    1
    31    37    39    1
    32    39    40    1
    33    39    41    1
    34    39    42    1
    35    37    43    1
    36    43    44    1
    37    43    45    1
    38    43    46    1
    39     8     9   ar
    40     9    10   ar
    41    10    11    1
    42    11    12    1
    43    13    12    1
    44    13     1    1
    45    13     4    1
    46    36    30   ar
    47    10     5   ar
    48    20    21    1
    49    16    17    1
@<TRIPOS>MOLECULE
*****
 46 49 0 0 0
SMALL
GASTEIGER

@<TRIPOS>ATOM
      1 C          64.0215   90.8852   13.2697 C.3     1  UNL1        0.0736
      2 C          63.1898   91.0981   12.0396 C.3     1  UNL1        0.0217
      3 C          62.6881   89.7606   11.5821 C.3     1  UNL1        0.0283
      4 C          63.2097   88.7211   12.5294 C.3     1  UNL1        0.1361
      5 C          63.0406   87.2314   12.5769 C.ar    1  UNL1        0.0114
      6 C          62.2166   86.5364   11.5340 C.ar    1  UNL1       -0.0002
      7 C          62.0476   85.0467   11.5816 C.ar    1  UNL1        0.0177
      8 C          62.7027   84.2521   12.6722 C.ar    1  UNL1        0.1045
      9 N          63.5267   84.9471   13.7152 N.ar    1  UNL1       -0.2511
     10 C          63.6957   86.4367   13.6675 C.ar    1  UNL1        0.0562
     11 C          64.5198   87.1318   14.7106 C.3     1  UNL1        0.0456
     12 C          64.6888   88.6215   14.6629 C.3     1  UNL1        0.0099
     13 C          64.0337   89.4161   13.5723 C.3     1  UNL1        0.0430
     14 C          66.1346   91.7502   14.5091 C.2     1  UNL1        0.2482
     15 O          66.8538   90.4780   14.1708 O.2     1  UNL1       -0.2725
     16 N          64.7185   91.9538   14.0586 N.am    1  UNL1       -0.3040
     17 H          64.2466   92.7888   14.2806 H       1  UNL1        0.1494
     18 C          67.5289   93.8873   16.0868 C.3     1  UNL1        0.0406
     19 C          66.8318   92.8187   15.2980 C.3     1  UNL1        0.1782
     20 O          66.0626   92.4172   16.5215 O.3     1  UNL1       -0.3765
     21 H          66.3218   92.9822   17.2663 H       1  UNL1        0.2109
     22 C          67.6009   93.2201   14.0744 C.3     1  UNL1        0.1864
     23 S          66.8717   93.6918   12.8514 S.O2    1  UNL1       -0.0054
     24 C          66.1426   94.1635   11.6284 C.3     1  UNL1        0.1762
     25 O          67.6045   92.6781   12.0235 O.2     1  UNL1       -0.1728
     26 O          66.1389   94.7057   13.6792 O.2     1  UNL1       -0.1728
     27 S          62.3608   88.1678   11.4234 S.O2    1  UNL1        0.0091
     28 O          61.7043   87.9096   11.7948 O.2     1  UNL1       -0.1684
     29 O          63.4220   88.5305   10.4273 O.2     1  UNL1       -0.1684
     30 C          61.5118   87.6144   10.3174 C.ar    1  UNL1        0.1060
     31 C          60.0218   87.7819   10.3602 C.ar    1  UNL1        0.0207
     32 C          59.1729   87.2285    9.2543 C.ar    1  UNL1        0.0310
     33 C          59.8139   86.5078    8.1056 C.ar    1  UNL1        0.1402
     34 F          58.9649   85.9544    6.9996 F       1  UNL1       -0.2042
     35 C          61.3039   86.3404    8.0628 C.ar    1  UNL1        0.0310
     36 C          62.1528   86.8937    9.1687 C.ar    1  UNL1        0.0207
     37 C          62.5336   82.7623   12.7198 C.3     1  UNL1        0.3398
     38 F          62.3306   82.7380   11.2338 F       1  UNL1       -0.2160
     39 C          62.3646   81.2727   12.7673 C.3     1  UNL1        0.4378
     40 F          62.1956   79.7829   12.8148 F       1  UNL1       -0.1666
     41 F          61.2087   81.4339   13.7095 F       1  UNL1       -0.1666
     42 F          63.4913   80.9311   11.8378 F       1  UNL1       -0.1666
     43 C          62.7367   82.7867   14.2057 C.3     1  UNL1        0.4378
     44 F          62.9398   82.8111   15.6918 F       1  UNL1       -0.1666
     45 F          61.5563   83.6507   14.5375 F       1  UNL1       -0.1666
     46 F          63.9641   81.9509   14.4181 F       1  UNL1       -0.1666
@<TRIPOS>BOND
     1    19    18    1
     2    19    20    1
     3    19    22    1
     4    22    23    1
     5    23    24    1
     6    23    25    2
     7    23    26    2
     8    19    14    1
     9    14    15    2
    10    14    16   am
    11     1    16    1
    12     1     2    1
    13     2     3    1
    14     3     4    1
    15     4    27    1
    16    27    28    2
    17    27    29    2
    18    27    30    1
    19    30    31   ar
    20    31    32   ar
    21    32    33   ar
    22    33    34    1
    23    33    35   ar
    24    35    36   ar
    25     4     5    1
    26     5     6   ar
    27     6     7   ar
    28     7     8   ar
    29     8    37    1
    30    37    38    1
    31    37    39    1
    32    39    40    1
    33    39    41    1
    34    39    42    1
    35    37    43    1
    36    43    44    1
    37    43    45    1
    38    43    46    1
    39     8     9   ar
    40     9    10   ar
    41    10    11    1
    42    11    12    1
    43    13    12    1
    44    13     1    1
    45    13     4    1
    46    36    30   ar
    47    10     5   ar
    48    20    21    1
    49    16    17    1
