@<TRIPOS>MOLECULE
*****
 38 40 0 0 0
SMALL
GASTEIGER

@<TRIPOS>ATOM
      1 C          58.6214   89.9040    6.2817 C.3     1  UNL1        0.0310
      2 C          59.3783   88.9692    7.1779 C.ar    1  UNL1       -0.0220
      3 C          59.4400   87.5058    6.8546 C.ar    1  UNL1       -0.0030
      4 C          60.1969   86.5709    7.7508 C.ar    1  UNL1        0.0139
      5 C          60.8920   87.0995    8.9703 C.ar    1  UNL1        0.0454
      6 C          60.8303   88.5629    9.2937 C.ar    1  UNL1        0.0085
      7 C          60.0734   89.4977    8.3975 C.ar    1  UNL1       -0.0057
      8 N          61.6489   86.1647    9.8666 N.pl3   1  UNL1       -0.3043
      9 C          61.3649   86.1431   11.3392 C.3     1  UNL1        0.1123
     10 C          62.1218   85.2083   12.2355 C.3     1  UNL1        0.1148
     11 N          63.1627   84.2950   11.6590 N.am    1  UNL1       -0.2760
     12 C          63.9196   83.3602   12.5552 C.2     1  UNL1        0.2256
     13 O          64.9605   82.4469   11.9788 O.2     1  UNL1       -0.2749
     14 C          63.4467   84.3165   10.1863 C.3     1  UNL1        0.1148
     15 C          62.6898   85.2514    9.2901 C.3     1  UNL1        0.1123
     16 C          63.6355   83.3386   14.0279 C.3     1  UNL1        0.0811
     17 C          62.4663   82.5608   14.5549 C.3     1  UNL1        0.0099
     18 C          64.5208   84.0949   14.9736 C.3     1  UNL1        0.0354
     19 C          64.1733   85.5008   15.3643 C.ar    1  UNL1       -0.0217
     20 C          64.6278   86.6497   14.5136 C.ar    1  UNL1       -0.0034
     21 C          64.2802   88.0556   14.9042 C.ar    1  UNL1        0.0111
     22 C          63.4782   88.3127   16.1455 C.ar    1  UNL1        0.0577
     23 CL         63.1306   89.7186   16.5361 Cl      1  UNL1       -0.0822
     24 C          63.0237   87.1639   16.9961 C.ar    1  UNL1        0.0111
     25 C          63.3712   85.7579   16.6055 C.ar    1  UNL1       -0.0034
     26 C          61.5254   89.0915   10.5133 C.3     1  UNL1        0.0951
     27 N          62.9663   89.5013   10.4368 N.am    1  UNL1       -0.3021
     28 C          63.3348   90.9552   10.4586 C.2     1  UNL1        0.2241
     29 O          62.2623   91.9993   10.5570 O.2     1  UNL1       -0.2750
     30 H          63.6702   88.8161   10.3723 H       1  UNL1        0.1497
     31 C          64.7757   91.3650   10.3822 C.3     1  UNL1        0.1023
     32 C          65.2346   92.6227   11.0586 C.3     1  UNL1        0.0818
     33 N          65.5628   92.6103   12.5222 N.3     1  UNL1       -0.2699
     34 C          66.4223   93.6915   13.1072 C.3     1  UNL1        0.0897
     35 C          65.0316   91.5167   13.4007 C.3     1  UNL1        0.0897
     36 C          60.7797   89.2104   11.8093 C.3     1  UNL1        0.0223
     37 C          59.3101   88.9137   11.8589 C.3     1  UNL1        0.0020
     38 C          61.5034   89.6258   13.0557 C.3     1  UNL1        0.0020
@<TRIPOS>BOND
     1     1     2    1
     2     2     3   ar
     3     3     4   ar
     4     4     5   ar
     5     5     8    1
     6     8     9    1
     7     9    10    1
     8    10    11    1
     9    11    12   am
    10    12    13    2
    11    12    16    1
    12    16    17    1
    13    16    18    1
    14    18    19    1
    15    19    20   ar
    16    20    21   ar
    17    21    22   ar
    18    22    23    1
    19    22    24   ar
    20    24    25   ar
    21    11    14    1
    22    14    15    1
    23     5     6   ar
    24     6    26    1
    25    26    27    1
    26    27    28   am
    27    28    29    2
    28    28    31    1
    29    31    32    1
    30    32    33    1
    31    33    34    1
    32    33    35    1
    33    26    36    1
    34    36    37    1
    35    36    38    1
    36     6     7   ar
    37     7     2   ar
    38    15     8    1
    39    25    19   ar
    40    27    30    1
@<TRIPOS>MOLECULE
*****
 38 40 0 0 0
SMALL
GASTEIGER

@<TRIPOS>ATOM
      1 C          67.9961   92.7293   14.8566 C.3     1  UNL1        0.0310
      2 C          66.8178   92.1482   14.1327 C.ar    1  UNL1       -0.0220
      3 C          66.4562   92.6485   12.7657 C.ar    1  UNL1       -0.0030
      4 C          65.2780   92.0673   12.0417 C.ar    1  UNL1        0.0139
      5 C          64.4614   90.9858   12.6848 C.ar    1  UNL1        0.0454
      6 C          64.8231   90.4855   14.0519 C.ar    1  UNL1        0.0085
      7 C          66.0013   91.0667   14.7758 C.ar    1  UNL1       -0.0057
      8 N          63.2832   90.4047   11.9609 N.pl3   1  UNL1       -0.3043
      9 C          63.3958   90.0510   10.5076 C.3     1  UNL1        0.1123
     10 C          62.2176   89.4698    9.7837 C.3     1  UNL1        0.1148
     11 N          60.9268   89.2423   10.5131 N.am    1  UNL1       -0.2760
     12 C          59.7486   88.6612    9.7891 C.2     1  UNL1        0.2256
     13 O          58.4578   88.4337   10.5185 O.2     1  UNL1       -0.2749
     14 C          60.8142   89.5960   11.9664 C.3     1  UNL1        0.1148
     15 C          61.9924   90.1772   12.6903 C.3     1  UNL1        0.1123
     16 C          59.8612   88.3075    8.3358 C.3     1  UNL1        0.0811
     17 C          59.7794   89.3832    7.2936 C.3     1  UNL1        0.0099
     18 C          60.0555   86.8781    7.9246 C.3     1  UNL1        0.0354
     19 C          61.1402   86.0568    8.5562 C.ar    1  UNL1       -0.0217
     20 C          62.1818   85.4024    7.6977 C.ar    1  UNL1       -0.0034
     21 C          63.2665   84.5812    8.3293 C.ar    1  UNL1        0.0111
     22 C          63.3096   84.4142    9.8193 C.ar    1  UNL1        0.0577
     23 CL         64.3943   83.5930   10.4509 Cl      1  UNL1       -0.0822
     24 C          62.2681   85.0685   10.6778 C.ar    1  UNL1        0.0111
     25 C          61.1833   85.8899   10.0462 C.ar    1  UNL1       -0.0034
     26 C          64.0065   89.4040   14.6951 C.3     1  UNL1        0.0951
     27 N          63.6722   88.1596   13.9272 N.am    1  UNL1       -0.3021
     28 C          64.3323   86.8600   14.2809 C.2     1  UNL1        0.2241
     29 O          65.3268   86.8047   15.4025 O.2     1  UNL1       -0.2750
     30 H          63.0194   88.1959   13.1911 H       1  UNL1        0.1497
     31 C          63.9979   85.6156   13.5130 C.3     1  UNL1        0.1023
     32 C          64.5359   84.2895   13.9628 C.3     1  UNL1        0.0818
     33 N          63.6009   83.1389   14.1901 N.3     1  UNL1       -0.2699
     34 C          62.3722   83.3256   15.0299 C.3     1  UNL1        0.0897
     35 C          63.8945   81.8015   13.5775 C.3     1  UNL1        0.0897
     36 C          63.5244   89.5670   16.1061 C.3     1  UNL1        0.0223
     37 C          63.5136   90.9251   16.7429 C.3     1  UNL1        0.0020
     38 C          63.0530   88.3718   16.8803 C.3     1  UNL1        0.0020
@<TRIPOS>BOND
     1     1     2    1
     2     2     3   ar
     3     3     4   ar
     4     4     5   ar
     5     5     8    1
     6     8     9    1
     7     9    10    1
     8    10    11    1
     9    11    12   am
    10    12    13    2
    11    12    16    1
    12    16    17    1
    13    16    18    1
    14    18    19    1
    15    19    20   ar
    16    20    21   ar
    17    21    22   ar
    18    22    23    1
    19    22    24   ar
    20    24    25   ar
    21    11    14    1
    22    14    15    1
    23     5     6   ar
    24     6    26    1
    25    26    27    1
    26    27    28   am
    27    28    29    2
    28    28    31    1
    29    31    32    1
    30    32    33    1
    31    33    34    1
    32    33    35    1
    33    26    36    1
    34    36    37    1
    35    36    38    1
    36     6     7   ar
    37     7     2   ar
    38    15     8    1
    39    25    19   ar
    40    27    30    1
@<TRIPOS>MOLECULE
*****
 38 40 0 0 0
SMALL
GASTEIGER

@<TRIPOS>ATOM
      1 C          62.2061   80.4587   13.4661 C.3     1  UNL1        0.0310
      2 C          62.4994   81.9292   13.4244 C.ar    1  UNL1       -0.0220
      3 C          62.9310   82.6435   14.6707 C.ar    1  UNL1       -0.0030
      4 C          63.2243   84.1140   14.6290 C.ar    1  UNL1        0.0139
      5 C          63.0859   84.8701   13.3410 C.ar    1  UNL1        0.0454
      6 C          62.6543   84.1558   12.0946 C.ar    1  UNL1        0.0085
      7 C          62.3610   82.6853   12.1363 C.ar    1  UNL1       -0.0057
      8 N          63.3792   86.3406   13.2992 N.pl3   1  UNL1       -0.3043
      9 C          64.2422   86.9635   14.3562 C.3     1  UNL1        0.1123
     10 C          64.5354   88.4339   14.3145 C.3     1  UNL1        0.1148
     11 N          63.9657   89.2815   13.2158 N.am    1  UNL1       -0.2760
     12 C          64.2589   90.7519   13.1741 C.2     1  UNL1        0.2256
     13 O          63.6892   91.5995   12.0755 O.2     1  UNL1       -0.2749
     14 C          63.1027   88.6586   12.1589 C.3     1  UNL1        0.1148
     15 C          62.8094   87.1881   12.2006 C.3     1  UNL1        0.1123
     16 C          65.1219   91.3749   14.2310 C.3     1  UNL1        0.0811
     17 C          64.6077   91.5143   15.6332 C.3     1  UNL1        0.0099
     18 C          66.4993   91.8585   13.8858 C.3     1  UNL1        0.0354
     19 C          66.7409   92.5699   12.5876 C.ar    1  UNL1       -0.0217
     20 C          67.5147   91.8941   11.4946 C.ar    1  UNL1       -0.0034
     21 C          67.7563   92.6055   10.1964 C.ar    1  UNL1        0.0111
     22 C          67.2242   93.9929    9.9911 C.ar    1  UNL1        0.0577
     23 CL         67.4658   94.7044    8.6929 Cl      1  UNL1       -0.0822
     24 C          66.4505   94.6688   11.0841 C.ar    1  UNL1        0.0111
     25 C          66.2088   93.9573   12.3823 C.ar    1  UNL1       -0.0034
     26 C          62.5159   84.9119   10.8065 C.3     1  UNL1        0.0951
     27 N          61.4898   85.9989   10.6814 N.am    1  UNL1       -0.3021
     28 C          60.7069   86.1486    9.4108 C.2     1  UNL1        0.2241
     29 O          60.9500   85.2113    8.2651 O.2     1  UNL1       -0.2750
     30 H          61.3302   86.6140   11.4333 H       1  UNL1        0.1497
     31 C          59.6808   87.2356    9.2857 C.3     1  UNL1        0.1023
     32 C          60.0964   88.6738    9.3804 C.3     1  UNL1        0.0818
     33 N          59.9790   89.4041   10.6853 N.3     1  UNL1       -0.2699
     34 C          59.3453   88.7314   11.8668 C.3     1  UNL1        0.0897
     35 C          60.4952   90.8071   10.8087 C.3     1  UNL1        0.0897
     36 C          63.4035   84.5810    9.6435 C.3     1  UNL1        0.0223
     37 C          64.2214   83.3236    9.6581 C.3     1  UNL1        0.0020
     38 C          63.4734   85.5075    8.4659 C.3     1  UNL1        0.0020
@<TRIPOS>BOND
     1     1     2    1
     2     2     3   ar
     3     3     4   ar
     4     4     5   ar
     5     5     8    1
     6     8     9    1
     7     9    10    1
     8    10    11    1
     9    11    12   am
    10    12    13    2
    11    12    16    1
    12    16    17    1
    13    16    18    1
    14    18    19    1
    15    19    20   ar
    16    20    21   ar
    17    21    22   ar
    18    22    23    1
    19    22    24   ar
    20    24    25   ar
    21    11    14    1
    22    14    15    1
    23     5     6   ar
    24     6    26    1
    25    26    27    1
    26    27    28   am
    27    28    29    2
    28    28    31    1
    29    31    32    1
    30    32    33    1
    31    33    34    1
    32    33    35    1
    33    26    36    1
    34    36    37    1
    35    36    38    1
    36     6     7   ar
    37     7     2   ar
    38    15     8    1
    39    25    19   ar
    40    27    30    1
@<TRIPOS>MOLECULE
*****
 38 40 0 0 0
SMALL
GASTEIGER

@<TRIPOS>ATOM
      1 C          62.2399   80.1521   13.4159 C.3     1  UNL1        0.0310
      2 C          62.5363   81.6120   13.5912 C.ar    1  UNL1       -0.0220
      3 C          62.9120   82.1440   14.9424 C.ar    1  UNL1       -0.0030
      4 C          63.2084   83.6040   15.1177 C.ar    1  UNL1        0.0139
      5 C          63.1291   84.5319   13.9419 C.ar    1  UNL1        0.0454
      6 C          62.7534   83.9999   12.5907 C.ar    1  UNL1        0.0085
      7 C          62.4570   82.5399   12.4154 C.ar    1  UNL1       -0.0057
      8 N          63.4255   85.9918   14.1172 N.pl3   1  UNL1       -0.3043
      9 C          63.7753   86.8344   12.9266 C.3     1  UNL1        0.1123
     10 C          64.0717   88.2943   13.1019 C.3     1  UNL1        0.1148
     11 N          64.0183   88.9117   14.4679 N.am    1  UNL1       -0.2760
     12 C          64.3147   90.3716   14.6432 C.2     1  UNL1        0.2256
     13 O          64.2614   90.9890   16.0092 O.2     1  UNL1       -0.2749
     14 C          63.6686   88.0691   15.6585 C.3     1  UNL1        0.1148
     15 C          63.3722   86.6092   15.4832 C.3     1  UNL1        0.1123
     16 C          64.6645   91.2142   13.4526 C.3     1  UNL1        0.0811
     17 C          63.7439   91.2593   12.2692 C.3     1  UNL1        0.0099
     18 C          65.9350   92.0117   13.4453 C.3     1  UNL1        0.0354
     19 C          66.3352   92.7735   12.2167 C.ar    1  UNL1       -0.0217
     20 C          66.0411   94.2409   12.1151 C.ar    1  UNL1       -0.0034
     21 C          66.4413   95.0027   10.8865 C.ar    1  UNL1        0.0111
     22 C          67.1357   94.2972    9.7596 C.ar    1  UNL1        0.0577
     23 CL         67.5360   95.0590    8.5310 Cl      1  UNL1       -0.0822
     24 C          67.4299   92.8299    9.8612 C.ar    1  UNL1        0.0111
     25 C          67.0296   92.0680   11.0898 C.ar    1  UNL1       -0.0034
     26 C          62.6741   84.9278   11.4148 C.3     1  UNL1        0.0951
     27 N          61.8522   86.1796   11.5013 N.am    1  UNL1       -0.3021
     28 C          60.9163   86.5410   10.3862 C.2     1  UNL1        0.2241
     29 O          60.8023   85.6505    9.1845 O.2     1  UNL1       -0.2750
     30 H          61.9271   86.7640   12.2900 H       1  UNL1        0.1497
     31 C          60.0945   87.7928   10.4728 C.3     1  UNL1        0.1023
     32 C          60.1445   88.8011    9.3633 C.3     1  UNL1        0.0818
     33 N          59.4841   88.5042    8.0497 N.3     1  UNL1       -0.2699
     34 C          59.5358   89.5116    6.9396 C.3     1  UNL1        0.0897
     35 C          58.7718   87.1998    7.8462 C.3     1  UNL1        0.0897
     36 C          63.4166   84.6039   10.1524 C.3     1  UNL1        0.0223
     37 C          64.2373   83.3512   10.0653 C.3     1  UNL1        0.0020
     38 C          63.3385   85.5325    8.9770 C.3     1  UNL1        0.0020
@<TRIPOS>BOND
     1     1     2    1
     2     2     3   ar
     3     3     4   ar
     4     4     5   ar
     5     5     8    1
     6     8     9    1
     7     9    10    1
     8    10    11    1
     9    11    12   am
    10    12    13    2
    11    12    16    1
    12    16    17    1
    13    16    18    1
    14    18    19    1
    15    19    20   ar
    16    20    21   ar
    17    21    22   ar
    18    22    23    1
    19    22    24   ar
    20    24    25   ar
    21    11    14    1
    22    14    15    1
    23     5     6   ar
    24     6    26    1
    25    26    27    1
    26    27    28   am
    27    28    29    2
    28    28    31    1
    29    31    32    1
    30    32    33    1
    31    33    34    1
    32    33    35    1
    33    26    36    1
    34    36    37    1
    35    36    38    1
    36     6     7   ar
    37     7     2   ar
    38    15     8    1
    39    25    19   ar
    40    27    30    1
