@<TRIPOS>MOLECULE
*****
 65 73 0 0 0
SMALL
GASTEIGER

@<TRIPOS>ATOM
      1 N          63.4586   96.6401   -5.0499 N.3     1  UNL1       -0.1862
      2 C          62.6681   96.6559   -6.3245 C.3     1  UNL1        0.1775
      3 C          61.1796   96.4748   -6.2862 C.2     1  UNL1        0.2452
      4 O          60.3891   96.4906   -7.5610 O.2     1  UNL1       -0.2732
      5 N          60.4816   96.2779   -4.9733 N.am    1  UNL1       -0.2541
      6 C          58.9930   96.0969   -4.9350 C.3     1  UNL1        0.1577
      7 C          58.2950   95.9000   -3.6220 C.2     1  UNL1        0.2445
      8 O          56.8064   95.7189   -3.5837 O.2     1  UNL1       -0.2731
      9 N          59.0855   95.8842   -2.3472 N.am    1  UNL1       -0.2705
     10 C          60.5740   96.0653   -2.3855 C.3     1  UNL1        0.1359
     11 C          61.2720   96.2621   -3.6986 C.3     1  UNL1        0.1908
     12 N          62.7606   96.4432   -3.7369 N.am    1  UNL1       -0.1863
     13 C          63.5511   96.4274   -2.4621 C.2     1  UNL1        0.3191
     14 O          62.8530   96.2305   -1.1492 O.2     1  UNL1       -0.2512
     15 N          65.0396   96.6085   -2.5004 N.am    1  UNL1       -0.2836
     16 H          65.4978   96.7377   -3.3622 H       1  UNL1        0.1513
     17 C          64.9472   96.8211   -5.0882 C.3     1  UNL1        0.1188
     18 C          66.3521   95.4856   -6.8180 C.2     1  UNL1       -0.0034
     19 C          65.6770   96.7572   -6.3970 C.2     1  UNL1       -0.0071
     20 C          58.2025   96.1127   -6.2096 C.3     1  UNL1        0.0556
     21 C          57.3011   94.9623   -6.5474 C.ar    1  UNL1       -0.0198
     22 C          57.7174   93.5603   -6.2143 C.ar    1  UNL1       -0.0011
     23 C          56.8159   92.4100   -6.5521 C.ar    1  UNL1        0.0363
     24 C          55.4982   92.6616   -7.2231 C.ar    1  UNL1        0.1337
     25 O          54.5968   91.5113   -7.5609 O.3     1  UNL1       -0.5055
     26 C          55.0818   94.0637   -7.5562 C.ar    1  UNL1        0.0363
     27 C          55.9833   95.2140   -7.2184 C.ar    1  UNL1       -0.0011
     28 H          54.8568   90.6355   -7.3528 H       1  UNL1        0.2922
     29 C          58.3874   95.6873   -1.0343 C.3     1  UNL1        0.1217
     30 C          58.5092   94.3801   -0.3087 C.ar    1  UNL1        0.0135
     31 C          57.8697   93.1464   -0.8734 C.ar    1  UNL1       -0.0012
     32 C          57.9914   91.8393   -0.1479 C.ar    1  UNL1       -0.0002
     33 C          58.7527   91.7658    1.1424 C.ar    1  UNL1        0.0016
     34 C          59.3923   92.9995    1.7072 C.ar    1  UNL1        0.0214
     35 C          60.1991   93.2326    2.9500 C.ar    1  UNL1        0.0722
     36 C          60.5760   94.6838    2.9926 C.ar    1  UNL1        0.0805
     37 N          60.0021   95.3476    1.7761 N.ar    1  UNL1       -0.3241
     38 C          60.1362   96.7978    1.4170 C.3     1  UNL1        0.1305
     39 C          59.2705   94.3066    0.9816 C.ar    1  UNL1        0.0577
     40 C          60.5649   92.1963    3.9711 C.2     1  UNL1        0.2510
     41 O          61.9667   91.6662    4.0328 O.2     1  UNL1       -0.2698
     42 N          59.5287   91.6902    4.9304 N.am    1  UNL1       -0.2791
     43 H          58.6087   92.0381    4.8899 H       1  UNL1        0.1552
     44 C          59.8944   90.6540    5.9514 C.ar    1  UNL1        0.0701
     45 C          59.2659   89.2931    5.8970 C.ar    1  UNL1        0.0191
     46 C          59.6315   88.2568    6.9180 C.ar    1  UNL1        0.0356
     47 C          60.6256   88.5814    7.9934 C.ar    1  UNL1        0.1319
     48 N          61.2541   89.9423    8.0478 N.ar    1  UNL1       -0.2279
     49 C          60.8885   90.9786    7.0268 C.ar    1  UNL1        0.1149
     50 N          60.9912   87.5452    9.0144 N.pl3   1  UNL1       -0.2904
     51 C          60.6711   87.7730   10.4621 C.3     1  UNL1        0.1095
     52 C          61.0367   86.7368   11.4832 C.3     1  UNL1        0.0938
     53 N          61.7225   85.4728   11.0567 N.3     1  UNL1       -0.2711
     54 C          62.0427   85.2450    9.6091 C.3     1  UNL1        0.0938
     55 C          61.6771   86.2812    8.5879 C.3     1  UNL1        0.1095
     56 C          62.0882   84.4366   12.0777 C.3     1  UNL1        0.0577
     57 C          62.3143   83.0007   12.4479 C.3     1  UNL1        0.0173
     58 C          62.4954   84.0778   13.4760 C.3     1  UNL1        0.0173
     59 C          65.8301   96.5927   -1.2258 C.3     1  UNL1        0.1177
     60 C          65.3046   95.8611   -0.0264 C.ar    1  UNL1       -0.0025
     61 C          65.2173   94.3637   -0.0400 C.ar    1  UNL1       -0.0026
     62 C          64.6918   93.6321    1.1594 C.ar    1  UNL1       -0.0003
     63 C          64.2536   94.3978    2.3725 C.ar    1  UNL1       -0.0000
     64 C          64.3409   95.8953    2.3862 C.ar    1  UNL1       -0.0003
     65 C          64.8664   96.6269    1.1868 C.ar    1  UNL1       -0.0026
@<TRIPOS>BOND
     1    18    19    2
     2    19    17    1
     3    17     1    1
     4     1     2    1
     5     2     3    1
     6     3     4    2
     7     3     5   am
     8     5     6    1
     9     6    20    1
    10    20    21    1
    11    21    22   ar
    12    22    23   ar
    13    23    24   ar
    14    24    25    1
    15    24    26   ar
    16    26    27   ar
    17     6     7    1
    18     7     8    2
    19     7     9   am
    20     9    29    1
    21    29    30    1
    22    30    31   ar
    23    31    32   ar
    24    32    33   ar
    25    33    34   ar
    26    34    35   ar
    27    35    40    1
    28    40    41    2
    29    40    42   am
    30    42    44    1
    31    44    45   ar
    32    45    46   ar
    33    46    47   ar
    34    47    50    1
    35    50    51    1
    36    51    52    1
    37    52    53    1
    38    53    56    1
    39    56    57    1
    40    57    58    1
    41    53    54    1
    42    54    55    1
    43    47    48   ar
    44    48    49   ar
    45    35    36   ar
    46    36    37   ar
    47    37    38    1
    48    37    39   ar
    49     9    10    1
    50    10    11    1
    51    11    12    1
    52    12    13   am
    53    13    14    2
    54    13    15   am
    55    15    59    1
    56    59    60    1
    57    60    61   ar
    58    61    62   ar
    59    62    63   ar
    60    63    64   ar
    61    64    65   ar
    62    12     1    1
    63    65    60   ar
    64    11     5    1
    65    27    21   ar
    66    39    30   ar
    67    39    34   ar
    68    49    44   ar
    69    55    50    1
    70    58    56    1
    71    25    28    1
    72    42    43    1
    73    15    16    1
@<TRIPOS>MOLECULE
*****
 65 73 0 0 0
SMALL
GASTEIGER

@<TRIPOS>ATOM
      1 N          58.0025   95.2091   -5.9149 N.3     1  UNL1       -0.1862
      2 C          59.1670   95.1919   -6.8603 C.3     1  UNL1        0.1775
      3 C          60.5556   95.4270   -6.3441 C.2     1  UNL1        0.2452
      4 O          61.7201   95.4098   -7.2895 O.2     1  UNL1       -0.2732
      5 N          60.7798   95.6794   -4.8826 N.am    1  UNL1       -0.2541
      6 C          62.1684   95.9145   -4.3664 C.3     1  UNL1        0.1577
      7 C          62.3926   96.1668   -2.9049 C.2     1  UNL1        0.2445
      8 O          63.7812   96.4019   -2.3887 O.2     1  UNL1       -0.2731
      9 N          61.2281   96.1840   -1.9595 N.am    1  UNL1       -0.2705
     10 C          59.8395   95.9489   -2.4757 C.3     1  UNL1        0.1359
     11 C          59.6153   95.6966   -3.9373 C.3     1  UNL1        0.1908
     12 N          58.2267   95.4614   -4.4534 N.am    1  UNL1       -0.1863
     13 C          57.0622   95.4787   -3.5080 C.2     1  UNL1        0.3191
     14 O          57.2864   95.7310   -2.0465 O.2     1  UNL1       -0.2512
     15 N          55.6736   95.2435   -4.0242 N.am    1  UNL1       -0.2836
     16 H          55.5265   95.0779   -4.9835 H       1  UNL1        0.1513
     17 C          56.6139   94.9740   -6.4311 C.3     1  UNL1        0.1188
     18 C          55.9770   92.4623   -6.2431 C.2     1  UNL1       -0.0034
     19 C          56.2677   93.6692   -7.0850 C.2     1  UNL1       -0.0071
     20 C          63.3329   95.8973   -5.3117 C.3     1  UNL1        0.0556
     21 C          63.9880   94.5966   -5.6712 C.ar    1  UNL1       -0.0198
     22 C          63.5597   93.3287   -4.9937 C.ar    1  UNL1       -0.0011
     23 C          64.2148   92.0281   -5.3532 C.ar    1  UNL1        0.0363
     24 C          65.2982   91.9954   -6.3900 C.ar    1  UNL1        0.1337
     25 O          65.9533   90.6947   -6.7495 O.3     1  UNL1       -0.5055
     26 C          65.7265   93.2633   -7.0675 C.ar    1  UNL1        0.0363
     27 C          65.0714   94.5639   -6.7081 C.ar    1  UNL1       -0.0011
     28 H          65.6857   89.9027   -6.3263 H       1  UNL1        0.2922
     29 C          61.4522   96.4363   -0.4980 C.3     1  UNL1        0.1217
     30 C          62.1445   95.4054    0.3436 C.ar    1  UNL1        0.0135
     31 C          63.6204   95.1831    0.1941 C.ar    1  UNL1       -0.0012
     32 C          64.3126   94.1523    1.0356 C.ar    1  UNL1       -0.0002
     33 C          63.5290   93.3438    2.0266 C.ar    1  UNL1        0.0016
     34 C          62.0531   93.5660    2.1761 C.ar    1  UNL1        0.0214
     35 C          61.0263   92.9255    3.0623 C.ar    1  UNL1        0.0722
     36 C          59.6995   93.5605    2.7685 C.ar    1  UNL1        0.0805
     37 N          59.9062   94.5934    1.7008 N.ar    1  UNL1       -0.3241
     38 C          58.8448   95.4692    1.1039 C.3     1  UNL1        0.1305
     39 C          61.3608   94.5968    1.3346 C.ar    1  UNL1        0.0577
     40 C          61.2816   91.8405    4.0662 C.2     1  UNL1        0.2510
     41 O          62.5410   91.0293    3.9899 O.2     1  UNL1       -0.2698
     42 N          60.2774   91.5667    5.1463 N.am    1  UNL1       -0.2791
     43 H          59.4508   92.0991    5.1963 H       1  UNL1        0.1552
     44 C          60.5325   90.4817    6.1501 C.ar    1  UNL1        0.0701
     45 C          59.8644   89.1473    5.9983 C.ar    1  UNL1        0.0191
     46 C          60.1195   88.0623    7.0021 C.ar    1  UNL1        0.0356
     47 C          61.0428   88.3116    8.1577 C.ar    1  UNL1        0.1319
     48 N          61.7109   89.6460    8.3095 N.ar    1  UNL1       -0.2279
     49 C          61.4558   90.7310    7.3057 C.ar    1  UNL1        0.1149
     50 N          61.2980   87.2267    9.1615 N.pl3   1  UNL1       -0.2904
     51 C          61.9464   85.9443    8.7313 C.3     1  UNL1        0.1095
     52 C          62.2017   84.8593    9.7351 C.3     1  UNL1        0.0938
     53 N          61.8084   85.0566   11.1691 N.3     1  UNL1       -0.2711
     54 C          61.1599   86.3389   11.5993 C.3     1  UNL1        0.0938
     55 C          60.9047   87.4240   10.5955 C.3     1  UNL1        0.1095
     56 C          62.0636   83.9716   12.1729 C.3     1  UNL1        0.0577
     57 C          62.2484   82.5187   12.4967 C.3     1  UNL1        0.0173
     58 C          62.3207   83.5454   13.5879 C.3     1  UNL1        0.0173
     59 C          54.5091   95.2607   -3.0789 C.3     1  UNL1        0.1177
     60 C          53.1821   95.7923   -3.5332 C.ar    1  UNL1       -0.0025
     61 C          52.9634   96.1272   -4.9788 C.ar    1  UNL1       -0.0026
     62 C          51.6363   96.6588   -5.4331 C.ar    1  UNL1       -0.0003
     63 C          50.5280   96.8555   -4.4417 C.ar    1  UNL1       -0.0000
     64 C          50.7467   96.5206   -2.9960 C.ar    1  UNL1       -0.0003
     65 C          52.0737   95.9890   -2.5417 C.ar    1  UNL1       -0.0026
@<TRIPOS>BOND
     1    18    19    2
     2    19    17    1
     3    17     1    1
     4     1     2    1
     5     2     3    1
     6     3     4    2
     7     3     5   am
     8     5     6    1
     9     6    20    1
    10    20    21    1
    11    21    22   ar
    12    22    23   ar
    13    23    24   ar
    14    24    25    1
    15    24    26   ar
    16    26    27   ar
    17     6     7    1
    18     7     8    2
    19     7     9   am
    20     9    29    1
    21    29    30    1
    22    30    31   ar
    23    31    32   ar
    24    32    33   ar
    25    33    34   ar
    26    34    35   ar
    27    35    40    1
    28    40    41    2
    29    40    42   am
    30    42    44    1
    31    44    45   ar
    32    45    46   ar
    33    46    47   ar
    34    47    50    1
    35    50    51    1
    36    51    52    1
    37    52    53    1
    38    53    56    1
    39    56    57    1
    40    57    58    1
    41    53    54    1
    42    54    55    1
    43    47    48   ar
    44    48    49   ar
    45    35    36   ar
    46    36    37   ar
    47    37    38    1
    48    37    39   ar
    49     9    10    1
    50    10    11    1
    51    11    12    1
    52    12    13   am
    53    13    14    2
    54    13    15   am
    55    15    59    1
    56    59    60    1
    57    60    61   ar
    58    61    62   ar
    59    62    63   ar
    60    63    64   ar
    61    64    65   ar
    62    12     1    1
    63    65    60   ar
    64    11     5    1
    65    27    21   ar
    66    39    30   ar
    67    39    34   ar
    68    49    44   ar
    69    55    50    1
    70    58    56    1
    71    25    28    1
    72    42    43    1
    73    15    16    1
@<TRIPOS>MOLECULE
*****
 65 73 0 0 0
SMALL
GASTEIGER

@<TRIPOS>ATOM
      1 N          65.7258   89.9195   13.9693 N.3     1  UNL1       -0.1862
      2 C          66.1574   88.7472   14.7996 C.3     1  UNL1        0.1775
      3 C          65.3552   87.4799   14.7824 C.2     1  UNL1        0.2452
      4 O          65.7869   86.3077   15.6128 O.2     1  UNL1       -0.2732
      5 N          64.1213   87.3849   13.9348 N.am    1  UNL1       -0.2541
      6 C          63.3190   86.1175   13.9176 C.3     1  UNL1        0.1577
      7 C          62.0851   86.0225   13.0701 C.2     1  UNL1        0.2445
      8 O          61.2828   84.7551   13.0529 O.2     1  UNL1       -0.2731
      9 N          61.6534   87.1947   12.2397 N.am    1  UNL1       -0.2705
     10 C          62.4556   88.4620   12.2569 C.3     1  UNL1        0.1359
     11 C          63.6896   88.5571   13.1045 C.3     1  UNL1        0.1908
     12 N          64.4919   89.8244   13.1217 N.am    1  UNL1       -0.1863
     13 C          64.0602   90.9967   12.2913 C.2     1  UNL1        0.3191
     14 O          62.8262   90.9016   11.4438 O.2     1  UNL1       -0.2512
     15 N          64.8624   92.2640   12.3085 N.am    1  UNL1       -0.2836
     16 H          65.6723   92.3264   12.8648 H       1  UNL1        0.1513
     17 C          66.5281   91.1868   13.9865 C.3     1  UNL1        0.1188
     18 C          67.0577   92.8308   15.9272 C.2     1  UNL1       -0.0034
     19 C          67.3330   91.5484   15.1994 C.2     1  UNL1       -0.0071
     20 C          63.7507   84.9453   14.7480 C.3     1  UNL1        0.0556
     21 C          63.4341   83.5500   14.2975 C.ar    1  UNL1       -0.0198
     22 C          64.2563   82.9045   13.2218 C.ar    1  UNL1       -0.0011
     23 C          63.9398   81.5092   12.7713 C.ar    1  UNL1        0.0363
     24 C          62.8011   80.7593   13.3967 C.ar    1  UNL1        0.1337
     25 O          62.4845   79.3640   12.9462 O.3     1  UNL1       -0.5055
     26 C          61.9788   81.4048   14.4725 C.ar    1  UNL1        0.0363
     27 C          62.2954   82.8002   14.9229 C.ar    1  UNL1       -0.0011
     28 H          62.9981   78.9608   12.2742 H       1  UNL1        0.2922
     29 C          60.4195   87.0997   11.3922 C.3     1  UNL1        0.1217
     30 C          60.5293   87.1642    9.8975 C.ar    1  UNL1        0.0135
     31 C          60.9777   85.9587    9.1258 C.ar    1  UNL1       -0.0012
     32 C          61.0876   86.0232    7.6312 C.ar    1  UNL1       -0.0002
     33 C          60.7491   87.2932    6.9085 C.ar    1  UNL1        0.0016
     34 C          60.3007   88.4987    7.6802 C.ar    1  UNL1        0.0214
     35 C          59.9026   89.8779    7.2453 C.ar    1  UNL1        0.0722
     36 C          59.5467   90.6658    8.4711 C.ar    1  UNL1        0.0805
     37 N          59.7248   89.7736    9.6635 N.ar    1  UNL1       -0.3241
     38 C          59.4799   90.1539   11.0937 C.3     1  UNL1        0.1305
     39 C          60.1908   88.4342    9.1748 C.ar    1  UNL1        0.0577
     40 C          59.8667   90.3810    5.8325 C.2     1  UNL1        0.2510
     41 O          58.6833   90.0833    4.9603 O.2     1  UNL1       -0.2698
     42 N          61.0143   91.1816    5.2921 N.am    1  UNL1       -0.2791
     43 H          61.7910   91.3770    5.8647 H       1  UNL1        0.1552
     44 C          60.9784   91.6846    3.8795 C.ar    1  UNL1        0.0701
     45 C          62.1758   91.5142    2.9922 C.ar    1  UNL1        0.0191
     46 C          62.1401   92.0172    1.5795 C.ar    1  UNL1        0.0356
     47 C          60.9070   92.6906    1.0541 C.ar    1  UNL1        0.1319
     48 N          59.7097   92.8611    1.9414 N.ar    1  UNL1       -0.2279
     49 C          59.7454   92.3581    3.3541 C.ar    1  UNL1        0.1149
     50 N          60.8712   93.1937   -0.3585 N.pl3   1  UNL1       -0.2904
     51 C          62.0505   93.9291   -0.9229 C.3     1  UNL1        0.1095
     52 C          62.0147   94.4322   -2.3356 C.3     1  UNL1        0.0938
     53 N          60.7997   94.1998   -3.1840 N.3     1  UNL1       -0.2711
     54 C          59.6204   93.4644   -2.6197 C.3     1  UNL1        0.0938
     55 C          59.6562   92.9613   -1.2069 C.3     1  UNL1        0.1095
     56 C          60.7639   94.7029   -4.5966 C.3     1  UNL1        0.0577
     57 C          60.1476   95.5753   -5.6497 C.3     1  UNL1        0.0173
     58 C          61.3183   94.7016   -5.9904 C.3     1  UNL1        0.0173
     59 C          64.4308   93.4362   11.4782 C.3     1  UNL1        0.1177
     60 C          65.4352   94.1755   10.6448 C.ar    1  UNL1       -0.0025
     61 C          65.3209   95.6614   10.4752 C.ar    1  UNL1       -0.0026
     62 C          66.3254   96.4007    9.6418 C.ar    1  UNL1       -0.0003
     63 C          67.4441   95.6540    8.9780 C.ar    1  UNL1       -0.0000
     64 C          67.5585   94.1679    9.1475 C.ar    1  UNL1       -0.0003
     65 C          66.5540   93.4287    9.9809 C.ar    1  UNL1       -0.0026
@<TRIPOS>BOND
     1    18    19    2
     2    19    17    1
     3    17     1    1
     4     1     2    1
     5     2     3    1
     6     3     4    2
     7     3     5   am
     8     5     6    1
     9     6    20    1
    10    20    21    1
    11    21    22   ar
    12    22    23   ar
    13    23    24   ar
    14    24    25    1
    15    24    26   ar
    16    26    27   ar
    17     6     7    1
    18     7     8    2
    19     7     9   am
    20     9    29    1
    21    29    30    1
    22    30    31   ar
    23    31    32   ar
    24    32    33   ar
    25    33    34   ar
    26    34    35   ar
    27    35    40    1
    28    40    41    2
    29    40    42   am
    30    42    44    1
    31    44    45   ar
    32    45    46   ar
    33    46    47   ar
    34    47    50    1
    35    50    51    1
    36    51    52    1
    37    52    53    1
    38    53    56    1
    39    56    57    1
    40    57    58    1
    41    53    54    1
    42    54    55    1
    43    47    48   ar
    44    48    49   ar
    45    35    36   ar
    46    36    37   ar
    47    37    38    1
    48    37    39   ar
    49     9    10    1
    50    10    11    1
    51    11    12    1
    52    12    13   am
    53    13    14    2
    54    13    15   am
    55    15    59    1
    56    59    60    1
    57    60    61   ar
    58    61    62   ar
    59    62    63   ar
    60    63    64   ar
    61    64    65   ar
    62    12     1    1
    63    65    60   ar
    64    11     5    1
    65    27    21   ar
    66    39    30   ar
    67    39    34   ar
    68    49    44   ar
    69    55    50    1
    70    58    56    1
    71    25    28    1
    72    42    43    1
    73    15    16    1
