@<TRIPOS>MOLECULE
*****
 37 40 0 0 0
SMALL
GASTEIGER

@<TRIPOS>ATOM
      1 N          62.8436   90.7802   11.6674 N.am    1  UNL1       -0.2438
      2 C          63.3358   91.4320   10.4093 C.3     1  UNL1        0.1009
      3 C          64.4999   92.3766   10.4599 C.3     1  UNL1        0.0661
      4 C          65.1718   92.6695   11.7686 C.3     1  UNL1        0.1582
      5 O          64.6797   92.0177   13.0268 O.3     1  UNL1       -0.4375
      6 C          63.5156   91.0730   12.9762 C.2     1  UNL1        0.4051
      7 O          63.0234   90.4213   14.2343 O.2     1  UNL1       -0.2262
      8 C          65.9969   93.5263   10.8547 C.ar    1  UNL1        0.0139
      9 C          65.7054   94.9929   10.7355 C.ar    1  UNL1        0.0014
     10 C          66.5304   95.8497    9.8217 C.ar    1  UNL1        0.0294
     11 C          67.6470   95.2400    9.0270 C.ar    1  UNL1        0.1401
     12 F          68.4721   96.0968    8.1132 F       1  UNL1       -0.2042
     13 C          67.9385   93.7734    9.1462 C.ar    1  UNL1        0.0294
     14 C          67.1135   92.9165   10.0601 C.ar    1  UNL1        0.0014
     15 C          60.2802   90.3724   11.5555 C.3     1  UNL1        0.0265
     16 C          61.6795   89.8356   11.6168 C.3     1  UNL1        0.1011
     17 C          61.9148   88.3542   11.6275 C.ar    1  UNL1       -0.0042
     18 C          63.0191   87.7761   12.4619 C.ar    1  UNL1       -0.0027
     19 C          63.2543   86.2948   12.4726 C.ar    1  UNL1       -0.0002
     20 C          62.3852   85.3914   11.6488 C.ar    1  UNL1        0.0021
     21 C          61.2809   85.9694   10.8144 C.ar    1  UNL1       -0.0002
     22 C          61.0457   87.4508   10.8037 C.ar    1  UNL1       -0.0027
     23 C          62.6205   83.9100   11.6595 C.ar    1  UNL1        0.0276
     24 C          62.2049   83.0931   12.8469 C.ar    1  UNL1        0.0045
     25 C          62.4402   81.6117   12.8576 C.ar    1  UNL1        0.0298
     26 C          63.0910   80.9471   11.6808 C.ar    1  UNL1        0.1424
     27 F          63.3263   79.4658   11.6915 F       1  UNL1       -0.2041
     28 C          63.5066   81.7641   10.4934 C.ar    1  UNL1        0.0592
     29 C          63.2713   83.2454   10.4827 C.ar    1  UNL1        0.1423
     30 F          63.6869   84.0624    9.2953 F       1  UNL1       -0.2041
     31 C          66.1303   93.2599   12.7599 C.3     1  UNL1        0.0541
     32 C          66.7741   92.3843   13.7938 C.3     1  UNL1        0.0887
     33 C          68.2690   92.3296   13.9048 C.2     1  UNL1        0.2195
     34 N          69.0655   91.5293   12.9173 N.am    1  UNL1       -0.3288
     35 O          68.9673   93.0751   15.0032 O.2     1  UNL1       -0.2753
     36 H          68.6071   91.0399   12.1964 H       1  UNL1        0.1449
     37 H          70.0466   91.4933   12.9901 H       1  UNL1        0.1449
@<TRIPOS>BOND
     1    16    15    1
     2    16    17    1
     3    17    18   ar
     4    18    19   ar
     5    19    20   ar
     6    20    23    1
     7    23    24   ar
     8    24    25   ar
     9    25    26   ar
    10    26    27    1
    11    26    28   ar
    12    28    29   ar
    13    29    30    1
    14    20    21   ar
    15    21    22   ar
    16    16     1    1
    17     1     2    1
    18     2     3    1
    19     3     4    1
    20     4    31    1
    21    31    32    1
    22    32    33    1
    23    33    34   am
    24    33    35    2
    25     4     8    1
    26     8     9   ar
    27     9    10   ar
    28    10    11   ar
    29    11    12    1
    30    11    13   ar
    31    13    14   ar
    32     4     5    1
    33     5     6    1
    34     6     7    2
    35    22    17   ar
    36     6     1   am
    37    29    23   ar
    38    14     8   ar
    39    34    36    1
    40    34    37    1
@<TRIPOS>MOLECULE
*****
 37 40 0 0 0
SMALL
GASTEIGER

@<TRIPOS>ATOM
      1 N          63.2643   90.3252   12.0208 N.am    1  UNL1       -0.2438
      2 C          64.0035   90.2271   13.3223 C.3     1  UNL1        0.1009
      3 C          65.2052   91.0903   13.5692 C.3     1  UNL1        0.0661
      4 C          65.6675   92.0516   12.5147 C.3     1  UNL1        0.1582
      5 O          64.9283   92.1498   11.2132 O.3     1  UNL1       -0.4375
      6 C          63.7266   91.2866   10.9663 C.2     1  UNL1        0.4051
      7 O          62.9873   91.3848    9.6648 O.2     1  UNL1       -0.2262
      8 C          66.6908   92.3196   13.5783 C.ar    1  UNL1        0.0139
      9 C          66.2729   92.9247   14.8857 C.ar    1  UNL1        0.0014
     10 C          67.2963   93.1928   15.9492 C.ar    1  UNL1        0.0294
     11 C          68.7374   92.8557   15.7053 C.ar    1  UNL1        0.1401
     12 F          69.7607   93.1237   16.7688 F       1  UNL1       -0.2042
     13 C          69.1553   92.2506   14.3979 C.ar    1  UNL1        0.0294
     14 C          68.1320   91.9826   13.3344 C.ar    1  UNL1        0.0014
     15 C          60.7216   90.0923   11.5406 C.3     1  UNL1        0.0265
     16 C          62.0626   89.4621   11.7739 C.3     1  UNL1        0.1011
     17 C          62.2021   87.9686   11.7602 C.ar    1  UNL1       -0.0042
     18 C          61.3914   87.1484   10.8010 C.ar    1  UNL1       -0.0027
     19 C          61.5309   85.6550   10.7873 C.ar    1  UNL1       -0.0002
     20 C          62.4810   84.9818   11.7328 C.ar    1  UNL1        0.0021
     21 C          63.2916   85.8019   12.6921 C.ar    1  UNL1       -0.0002
     22 C          63.1522   87.2953   12.7057 C.ar    1  UNL1       -0.0027
     23 C          62.6204   83.4883   11.7191 C.ar    1  UNL1        0.0276
     24 C          62.1861   82.6835   12.9081 C.ar    1  UNL1        0.0045
     25 C          62.3255   81.1900   12.8944 C.ar    1  UNL1        0.0298
     26 C          62.8993   80.5014   11.6917 C.ar    1  UNL1        0.1424
     27 F          63.0387   79.0079   11.6779 F       1  UNL1       -0.2041
     28 C          63.3336   81.3062   10.5027 C.ar    1  UNL1        0.0592
     29 C          63.1941   82.7996   10.5164 C.ar    1  UNL1        0.1423
     30 F          63.6284   83.6044    9.3274 F       1  UNL1       -0.2041
     31 C          66.4853   93.1061   11.8296 C.3     1  UNL1        0.0541
     32 C          66.6389   93.0844   10.3377 C.3     1  UNL1        0.0887
     33 C          67.8748   93.6497    9.7026 C.2     1  UNL1        0.2195
     34 N          69.1457   92.8530    9.6956 N.am    1  UNL1       -0.3288
     35 O          67.8396   95.0114    9.0747 O.2     1  UNL1       -0.2753
     36 H          69.1687   91.9592   10.1077 H       1  UNL1        0.1449
     37 H          69.9569   93.2239    9.2788 H       1  UNL1        0.1449
@<TRIPOS>BOND
     1    16    15    1
     2    16    17    1
     3    17    18   ar
     4    18    19   ar
     5    19    20   ar
     6    20    23    1
     7    23    24   ar
     8    24    25   ar
     9    25    26   ar
    10    26    27    1
    11    26    28   ar
    12    28    29   ar
    13    29    30    1
    14    20    21   ar
    15    21    22   ar
    16    16     1    1
    17     1     2    1
    18     2     3    1
    19     3     4    1
    20     4    31    1
    21    31    32    1
    22    32    33    1
    23    33    34   am
    24    33    35    2
    25     4     8    1
    26     8     9   ar
    27     9    10   ar
    28    10    11   ar
    29    11    12    1
    30    11    13   ar
    31    13    14   ar
    32     4     5    1
    33     5     6    1
    34     6     7    2
    35    22    17   ar
    36     6     1   am
    37    29    23   ar
    38    14     8   ar
    39    34    36    1
    40    34    37    1
@<TRIPOS>MOLECULE
*****
 37 40 0 0 0
SMALL
GASTEIGER

@<TRIPOS>ATOM
      1 N          63.7668   88.2146   14.9344 N.am    1  UNL1       -0.2438
      2 C          63.9731   87.7170   13.5345 C.3     1  UNL1        0.1009
      3 C          63.8679   86.2506   13.2366 C.3     1  UNL1        0.0661
      4 C          63.5564   85.2819   14.3386 C.3     1  UNL1        0.1582
      5 O          63.3500   85.7795   15.7386 O.3     1  UNL1       -0.4375
      6 C          63.4552   87.2458   16.0365 C.2     1  UNL1        0.4051
      7 O          63.2489   87.7434   17.4364 O.2     1  UNL1       -0.2262
      8 C          63.6679   84.3334   13.1818 C.ar    1  UNL1        0.0139
      9 C          62.6668   84.3900   12.0663 C.ar    1  UNL1        0.0014
     10 C          62.7783   83.4415   10.9096 C.ar    1  UNL1        0.0294
     11 C          63.8911   82.4365   10.8685 C.ar    1  UNL1        0.1401
     12 F          64.0027   81.4881    9.7117 F       1  UNL1       -0.2042
     13 C          64.8923   82.3799   11.9840 C.ar    1  UNL1        0.0294
     14 C          64.7807   83.3284   13.1408 C.ar    1  UNL1        0.0014
     15 C          63.3791   90.2171   16.5436 C.3     1  UNL1        0.0265
     16 C          63.8720   89.6809   15.2323 C.3     1  UNL1        0.1011
     17 C          64.4702   90.6111   14.2188 C.ar    1  UNL1       -0.0042
     18 C          63.7293   90.9152   12.9506 C.ar    1  UNL1       -0.0027
     19 C          64.3275   91.8453   11.9372 C.ar    1  UNL1       -0.0002
     20 C          65.6666   92.4714   12.1921 C.ar    1  UNL1        0.0021
     21 C          66.4075   92.1672   13.4603 C.ar    1  UNL1       -0.0002
     22 C          65.8093   91.2371   14.4737 C.ar    1  UNL1       -0.0027
     23 C          66.2648   93.4015   11.1786 C.ar    1  UNL1        0.0276
     24 C          65.8118   94.8299   11.1122 C.ar    1  UNL1        0.0045
     25 C          66.4100   95.7601   10.0987 C.ar    1  UNL1        0.0298
     26 C          67.4611   95.2618    9.1517 C.ar    1  UNL1        0.1424
     27 F          68.0593   96.1919    8.1383 F       1  UNL1       -0.2041
     28 C          67.9141   93.8333    9.2182 C.ar    1  UNL1        0.0592
     29 C          67.3159   92.9032   10.2316 C.ar    1  UNL1        0.1423
     30 F          67.7688   91.4747   10.2981 F       1  UNL1       -0.2041
     31 C          63.2836   83.9837   15.0389 C.3     1  UNL1        0.0541
     32 C          61.9732   83.2828   14.8356 C.3     1  UNL1        0.0887
     33 C          61.9484   81.8197   14.5055 C.2     1  UNL1        0.2195
     34 N          60.6503   81.1494   14.1656 N.am    1  UNL1       -0.3288
     35 O          63.2219   81.0270   14.5153 O.2     1  UNL1       -0.2753
     36 H          59.8145   81.6697   14.1592 H       1  UNL1        0.1449
     37 H          60.6340   80.1892   13.9490 H       1  UNL1        0.1449
@<TRIPOS>BOND
     1    16    15    1
     2    16    17    1
     3    17    18   ar
     4    18    19   ar
     5    19    20   ar
     6    20    23    1
     7    23    24   ar
     8    24    25   ar
     9    25    26   ar
    10    26    27    1
    11    26    28   ar
    12    28    29   ar
    13    29    30    1
    14    20    21   ar
    15    21    22   ar
    16    16     1    1
    17     1     2    1
    18     2     3    1
    19     3     4    1
    20     4    31    1
    21    31    32    1
    22    32    33    1
    23    33    34   am
    24    33    35    2
    25     4     8    1
    26     8     9   ar
    27     9    10   ar
    28    10    11   ar
    29    11    12    1
    30    11    13   ar
    31    13    14   ar
    32     4     5    1
    33     5     6    1
    34     6     7    2
    35    22    17   ar
    36     6     1   am
    37    29    23   ar
    38    14     8   ar
    39    34    36    1
    40    34    37    1
@<TRIPOS>MOLECULE
*****
 37 40 0 0 0
SMALL
GASTEIGER

@<TRIPOS>ATOM
      1 N          64.1152   90.9605   13.0996 N.am    1  UNL1       -0.2438
      2 C          64.3221   91.5126   11.7204 C.3     1  UNL1        0.1009
      3 C          65.2200   92.6961   11.5132 C.3     1  UNL1        0.0661
      4 C          65.9110   93.3276   12.6852 C.3     1  UNL1        0.1582
      5 O          65.7041   92.7755   14.0645 O.3     1  UNL1       -0.4375
      6 C          64.8062   91.5919   14.2717 C.2     1  UNL1        0.4051
      7 O          64.5993   91.0398   15.6510 O.2     1  UNL1       -0.2262
      8 C          66.4192   94.2049   11.5796 C.ar    1  UNL1        0.0139
      9 C          67.1298   93.5973   10.4066 C.ar    1  UNL1        0.0014
     10 C          67.6380   94.4745    9.3011 C.ar    1  UNL1        0.0294
     11 C          67.4355   95.9593    9.3686 C.ar    1  UNL1        0.1401
     12 F          67.9437   96.8365    8.2630 F       1  UNL1       -0.2042
     13 C          66.7249   96.5668   10.5416 C.ar    1  UNL1        0.0294
     14 C          66.2167   95.6896   11.6471 C.ar    1  UNL1        0.0014
     15 C          62.6526   89.4929   14.6671 C.3     1  UNL1        0.0265
     16 C          63.2173   89.7769   13.3068 C.3     1  UNL1        0.1011
     17 C          62.8841   88.8773   12.1536 C.ar    1  UNL1       -0.0042
     18 C          62.9150   87.3881   12.3308 C.ar    1  UNL1       -0.0027
     19 C          62.5818   86.4886   11.1776 C.ar    1  UNL1       -0.0002
     20 C          62.2177   87.0783    9.8473 C.ar    1  UNL1        0.0021
     21 C          62.1867   88.5674    9.6701 C.ar    1  UNL1       -0.0002
     22 C          62.5199   89.4669   10.8233 C.ar    1  UNL1       -0.0027
     23 C          61.8845   86.1787    8.6941 C.ar    1  UNL1        0.0276
     24 C          62.9536   85.3312    8.0707 C.ar    1  UNL1        0.0045
     25 C          62.6204   84.4316    6.9175 C.ar    1  UNL1        0.0298
     26 C          61.2180   84.3795    6.3878 C.ar    1  UNL1        0.1424
     27 F          60.8848   83.4800    5.2347 F       1  UNL1       -0.2041
     28 C          60.1488   85.2270    7.0113 C.ar    1  UNL1        0.0592
     29 C          60.4821   86.1266    8.1644 C.ar    1  UNL1        0.1423
     30 F          59.4129   86.9741    8.7879 F       1  UNL1       -0.2041
     31 C          66.7785   94.2638   13.4733 C.3     1  UNL1        0.0541
     32 C          67.2871   93.8567   14.8245 C.3     1  UNL1        0.0887
     33 C          68.3984   92.8556   14.9372 C.2     1  UNL1        0.2195
     34 N          68.9255   92.1785   13.7069 N.am    1  UNL1       -0.3288
     35 O          68.9826   92.5316   16.2803 O.2     1  UNL1       -0.2753
     36 H          68.5421   92.3912   12.8254 H       1  UNL1        0.1449
     37 H          69.6549   91.5214   13.7809 H       1  UNL1        0.1449
@<TRIPOS>BOND
     1    16    15    1
     2    16    17    1
     3    17    18   ar
     4    18    19   ar
     5    19    20   ar
     6    20    23    1
     7    23    24   ar
     8    24    25   ar
     9    25    26   ar
    10    26    27    1
    11    26    28   ar
    12    28    29   ar
    13    29    30    1
    14    20    21   ar
    15    21    22   ar
    16    16     1    1
    17     1     2    1
    18     2     3    1
    19     3     4    1
    20     4    31    1
    21    31    32    1
    22    32    33    1
    23    33    34   am
    24    33    35    2
    25     4     8    1
    26     8     9   ar
    27     9    10   ar
    28    10    11   ar
    29    11    12    1
    30    11    13   ar
    31    13    14   ar
    32     4     5    1
    33     5     6    1
    34     6     7    2
    35    22    17   ar
    36     6     1   am
    37    29    23   ar
    38    14     8   ar
    39    34    36    1
    40    34    37    1
