@<TRIPOS>MOLECULE
*****
 31 34 0 0 0
SMALL
GASTEIGER

@<TRIPOS>ATOM
      1 C          62.7431   88.8973   11.9031 C.3     1  UNL1        0.1707
      2 N          62.4532   88.0366   10.7092 N.2     1  UNL1       -0.2641
      3 C          62.5246   86.5427   10.5939 C.2     1  UNL1        0.0779
      4 C          62.9034   85.5406   11.6437 C.ar    1  UNL1        0.0364
      5 C          62.8456   84.1398   11.1105 C.ar    1  UNL1        0.0398
      6 C          63.1888   82.9832   12.0018 C.ar    1  UNL1        0.1389
      7 C          63.5898   83.2275   13.4264 C.ar    1  UNL1        0.0384
      8 C          63.6477   84.6283   13.9597 C.ar    1  UNL1        0.0208
      9 C          63.3045   85.7848   13.0683 C.ar    1  UNL1        0.0678
     10 N          63.4258   87.0915   13.7949 N.ar    1  UNL1       -0.2791
     11 C          63.8400   87.2024   15.2323 C.ar    1  UNL1        0.1473
     12 C          64.1871   86.0602   16.1404 C.3     1  UNL1        0.0742
     13 N          63.8461   88.6561   15.6021 N.ar    1  UNL1       -0.1333
     14 N          63.4357   89.4436   14.3932 N.ar    1  UNL1       -0.1313
     15 C          63.1759   88.4767   13.2764 C.ar    1  UNL1        0.1697
     16 C          62.1702   85.9761    9.2510 C.ar    1  UNL1        0.0173
     17 C          63.2166   85.2829    8.4296 C.ar    1  UNL1        0.0023
     18 C          62.8622   84.7162    7.0867 C.ar    1  UNL1        0.0114
     19 C          61.4615   84.8427    6.5652 C.ar    1  UNL1        0.0577
     20 CL         61.1072   84.2760    5.2224 Cl      1  UNL1       -0.0822
     21 C          60.4152   85.5358    7.3866 C.ar    1  UNL1        0.0114
     22 C          60.7694   86.1025    8.7294 C.ar    1  UNL1        0.0023
     23 O          63.1309   81.5824   11.4686 O.3     1  UNL1       -0.4714
     24 C          62.7292   80.4527   12.3701 C.3     1  UNL1        0.2525
     25 C          62.5783   90.3738   11.6963 C.3     1  UNL1        0.1170
     26 N          64.6644   91.5963   12.6470 N.am    1  UNL1       -0.3043
     27 C          63.7841   91.2407   11.4857 C.2     1  UNL1        0.2249
     28 O          64.1097   91.7522   10.1136 O.2     1  UNL1       -0.2750
     29 H          64.4507   91.2606   13.5475 H       1  UNL1        0.1494
     30 C          67.1006   92.2517   13.2677 C.3     1  UNL1        0.0230
     31 C          65.8702   92.4633   12.4363 C.3     1  UNL1        0.0894
@<TRIPOS>BOND
     1    30    31    1
     2    31    26    1
     3    26    27   am
     4    27    28    2
     5    27    25    1
     6     1    25    1
     7     1     2    1
     8     2     3    2
     9     3    16    1
    10    16    17   ar
    11    17    18   ar
    12    18    19   ar
    13    19    20    1
    14    19    21   ar
    15    21    22   ar
    16     3     4    1
    17     4     5   ar
    18     5     6   ar
    19     6    23    1
    20    23    24    1
    21     6     7   ar
    22     7     8   ar
    23     8     9   ar
    24     9    10    1
    25    10    11   ar
    26    11    12    1
    27    11    13   ar
    28    13    14   ar
    29    14    15   ar
    30    15     1    1
    31    22    16   ar
    32     9     4   ar
    33    15    10   ar
    34    26    29    1
@<TRIPOS>MOLECULE
*****
 31 34 0 0 0
SMALL
GASTEIGER

@<TRIPOS>ATOM
      1 C          64.1048   87.8325   14.2381 C.3     1  UNL1        0.1707
      2 N          64.9720   89.0016   14.6004 N.2     1  UNL1       -0.2641
      3 C          65.1790   90.2816   13.8462 C.2     1  UNL1        0.0779
      4 C          64.5701   90.7087   12.5436 C.ar    1  UNL1        0.0364
      5 C          65.0462   92.0717   12.1368 C.ar    1  UNL1        0.0398
      6 C          64.5559   92.6872   10.8599 C.ar    1  UNL1        0.1389
      7 C          63.5894   91.9397    9.9897 C.ar    1  UNL1        0.0384
      8 C          63.1132   90.5768   10.3965 C.ar    1  UNL1        0.0208
      9 C          63.6036   89.9612   11.6734 C.ar    1  UNL1        0.0678
     10 N          63.0074   88.6021   11.8910 N.ar    1  UNL1       -0.2791
     11 C          62.0441   87.9600   10.9371 C.ar    1  UNL1        0.1473
     12 C          61.5414   88.5572    9.6563 C.3     1  UNL1        0.0742
     13 N          61.6718   86.6159   11.4890 N.ar    1  UNL1       -0.1333
     14 N          62.4050   86.4272   12.7839 N.ar    1  UNL1       -0.1313
     15 C          63.2304   87.6547   13.0323 C.ar    1  UNL1        0.1697
     16 C          66.1195   91.2645   14.4782 C.ar    1  UNL1        0.0173
     17 C          67.4930   91.4613   13.9084 C.ar    1  UNL1        0.0023
     18 C          68.4335   92.4443   14.5405 C.ar    1  UNL1        0.0114
     19 C          68.0003   93.2304   15.7423 C.ar    1  UNL1        0.0577
     20 CL         68.9408   94.2133   16.3743 Cl      1  UNL1       -0.0822
     21 C          66.6269   93.0337   16.3121 C.ar    1  UNL1        0.0114
     22 C          65.6864   92.0508   15.6801 C.ar    1  UNL1        0.0023
     23 O          65.0320   94.0503   10.4530 O.3     1  UNL1       -0.4714
     24 C          66.0832   94.7500   11.2625 C.3     1  UNL1        0.2525
     25 C          64.1130   86.6902   15.2102 C.3     1  UNL1        0.1170
     26 N          63.4901   84.2457   14.5887 N.am    1  UNL1       -0.3043
     27 C          64.5227   85.3210   14.7551 C.2     1  UNL1        0.2249
     28 O          65.9650   85.0269   14.4662 O.2     1  UNL1       -0.2750
     29 H          62.5435   84.4387   14.7782 H       1  UNL1        0.1494
     30 C          64.2038   82.6270   12.6859 C.3     1  UNL1        0.0230
     31 C          63.8999   82.8764   14.1335 C.3     1  UNL1        0.0894
@<TRIPOS>BOND
     1    30    31    1
     2    31    26    1
     3    26    27   am
     4    27    28    2
     5    27    25    1
     6     1    25    1
     7     1     2    1
     8     2     3    2
     9     3    16    1
    10    16    17   ar
    11    17    18   ar
    12    18    19   ar
    13    19    20    1
    14    19    21   ar
    15    21    22   ar
    16     3     4    1
    17     4     5   ar
    18     5     6   ar
    19     6    23    1
    20    23    24    1
    21     6     7   ar
    22     7     8   ar
    23     8     9   ar
    24     9    10    1
    25    10    11   ar
    26    11    12    1
    27    11    13   ar
    28    13    14   ar
    29    14    15   ar
    30    15     1    1
    31    22    16   ar
    32     9     4   ar
    33    15    10   ar
    34    26    29    1
@<TRIPOS>MOLECULE
*****
 31 34 0 0 0
SMALL
GASTEIGER

@<TRIPOS>ATOM
      1 C          61.5418   87.4735    9.8209 C.3     1  UNL1        0.1707
      2 N          61.7901   86.0545   10.2392 N.2     1  UNL1       -0.2641
      3 C          62.5228   85.5502   11.4470 C.2     1  UNL1        0.0779
      4 C          63.1881   86.3401   12.5349 C.ar    1  UNL1        0.0364
      5 C          63.8096   85.4417   13.5628 C.ar    1  UNL1        0.0398
      6 C          64.5280   86.0328   14.7394 C.ar    1  UNL1        0.1389
      7 C          64.6249   87.5223   14.8881 C.ar    1  UNL1        0.0384
      8 C          64.0034   88.4207   13.8602 C.ar    1  UNL1        0.0208
      9 C          63.2850   87.8296   12.6836 C.ar    1  UNL1        0.0678
     10 N          62.7406   88.8969   11.7811 N.ar    1  UNL1       -0.2791
     11 C          62.9065   90.3645   12.0434 C.ar    1  UNL1        0.1473
     12 C          63.6202   90.9761   13.2122 C.3     1  UNL1        0.0742
     13 N          62.2332   91.1130   10.9315 N.ar    1  UNL1       -0.1333
     14 N          61.6512   90.1081    9.9820 N.ar    1  UNL1       -0.1313
     15 C          61.9648   88.7385   10.5072 C.ar    1  UNL1        0.1697
     16 C          62.6005   84.0586   11.5852 C.ar    1  UNL1        0.0173
     17 C          63.2374   83.2373   10.5036 C.ar    1  UNL1        0.0023
     18 C          63.3151   81.7456   10.6419 C.ar    1  UNL1        0.0114
     19 C          62.7559   81.0754   11.8618 C.ar    1  UNL1        0.0577
     20 CL         62.8336   79.5838   11.9999 Cl      1  UNL1       -0.0822
     21 C          62.1190   81.8966   12.9433 C.ar    1  UNL1        0.0114
     22 C          62.0413   83.3882   12.8051 C.ar    1  UNL1        0.0023
     23 O          65.1496   85.1344   15.7673 O.3     1  UNL1       -0.4714
     24 C          64.7198   83.7009   15.8688 C.3     1  UNL1        0.2525
     25 C          60.7682   87.6509    8.5481 C.3     1  UNL1        0.1170
     26 N          61.5689   85.5327    7.2746 N.am    1  UNL1       -0.3043
     27 C          60.4659   86.4638    7.6825 C.2     1  UNL1        0.2249
     28 O          59.0605   86.2077    7.2248 O.2     1  UNL1       -0.2750
     29 H          62.4913   85.7007    7.5750 H       1  UNL1        0.1494
     30 C          62.0526   84.1138    5.1526 C.3     1  UNL1        0.0230
     31 C          61.2665   84.3455    6.4089 C.3     1  UNL1        0.0894
@<TRIPOS>BOND
     1    30    31    1
     2    31    26    1
     3    26    27   am
     4    27    28    2
     5    27    25    1
     6     1    25    1
     7     1     2    1
     8     2     3    2
     9     3    16    1
    10    16    17   ar
    11    17    18   ar
    12    18    19   ar
    13    19    20    1
    14    19    21   ar
    15    21    22   ar
    16     3     4    1
    17     4     5   ar
    18     5     6   ar
    19     6    23    1
    20    23    24    1
    21     6     7   ar
    22     7     8   ar
    23     8     9   ar
    24     9    10    1
    25    10    11   ar
    26    11    12    1
    27    11    13   ar
    28    13    14   ar
    29    14    15   ar
    30    15     1    1
    31    22    16   ar
    32     9     4   ar
    33    15    10   ar
    34    26    29    1
@<TRIPOS>MOLECULE
*****
 31 34 0 0 0
SMALL
GASTEIGER

@<TRIPOS>ATOM
      1 C          63.7244   87.6086   13.5291 C.3     1  UNL1        0.1707
      2 N          63.5592   86.1714   13.1322 N.2     1  UNL1       -0.2641
      3 C          62.9376   85.6105   11.8877 C.2     1  UNL1        0.0779
      4 C          62.3277   86.3479   10.7326 C.ar    1  UNL1        0.0364
      5 C          61.8176   85.4019    9.6863 C.ar    1  UNL1        0.0398
      6 C          61.1685   85.9365    8.4442 C.ar    1  UNL1        0.1389
      7 C          61.0295   87.4172    8.2484 C.ar    1  UNL1        0.0384
      8 C          61.5396   88.3632    9.2947 C.ar    1  UNL1        0.0208
      9 C          62.1887   87.8286   10.5368 C.ar    1  UNL1        0.0678
     10 N          62.6253   88.9374   11.4478 N.ar    1  UNL1       -0.2791
     11 C          62.4269   90.3909   11.1343 C.ar    1  UNL1        0.1473
     12 C          61.7811   90.9463    9.8997 C.3     1  UNL1        0.0742
     13 N          62.9877   91.1912   12.2723 N.ar    1  UNL1       -0.1333
     14 N          63.5327   90.2324   13.2890 N.ar    1  UNL1       -0.1313
     15 C          63.3088   88.8396   12.7794 C.ar    1  UNL1        0.1697
     16 C          62.9242   84.1141   11.7845 C.ar    1  UNL1        0.0173
     17 C          63.6044   83.4355   10.6326 C.ar    1  UNL1        0.0023
     18 C          63.5910   81.9391   10.5294 C.ar    1  UNL1        0.0114
     19 C          62.8973   81.1213   11.5783 C.ar    1  UNL1        0.0577
     20 CL         62.8839   79.6249   11.4750 Cl      1  UNL1       -0.0822
     21 C          62.2171   81.7997   12.7301 C.ar    1  UNL1        0.0114
     22 C          62.2305   83.2961   12.8333 C.ar    1  UNL1        0.0023
     23 O          60.6583   84.9905    7.3978 O.3     1  UNL1       -0.4714
     24 C          61.5501   84.5713    6.2669 C.3     1  UNL1        0.2525
     25 C          64.3936   87.8461   14.8503 C.3     1  UNL1        0.1170
     26 N          63.1015   86.3716   16.5550 N.am    1  UNL1       -0.3043
     27 C          63.6098   87.7149   16.1224 C.2     1  UNL1        0.2249
     28 O          63.3343   88.9270   16.9620 O.2     1  UNL1       -0.2750
     29 H          63.2823   85.5760   16.0040 H       1  UNL1        0.1494
     30 C          62.7621   86.9693   19.0606 C.3     1  UNL1        0.0230
     31 C          62.3176   86.2404   17.8272 C.3     1  UNL1        0.0894
@<TRIPOS>BOND
     1    30    31    1
     2    31    26    1
     3    26    27   am
     4    27    28    2
     5    27    25    1
     6     1    25    1
     7     1     2    1
     8     2     3    2
     9     3    16    1
    10    16    17   ar
    11    17    18   ar
    12    18    19   ar
    13    19    20    1
    14    19    21   ar
    15    21    22   ar
    16     3     4    1
    17     4     5   ar
    18     5     6   ar
    19     6    23    1
    20    23    24    1
    21     6     7   ar
    22     7     8   ar
    23     8     9   ar
    24     9    10    1
    25    10    11   ar
    26    11    12    1
    27    11    13   ar
    28    13    14   ar
    29    14    15   ar
    30    15     1    1
    31    22    16   ar
    32     9     4   ar
    33    15    10   ar
    34    26    29    1
@<TRIPOS>MOLECULE
*****
 31 34 0 0 0
SMALL
GASTEIGER

@<TRIPOS>ATOM
      1 C          61.7036   86.9003    9.4855 C.3     1  UNL1        0.1707
      2 N          61.9021   85.5996   10.2058 N.2     1  UNL1       -0.2641
      3 C          62.5112   85.3618   11.5558 C.2     1  UNL1        0.0779
      4 C          63.0722   86.3657   12.5189 C.ar    1  UNL1        0.0364
      5 C          63.5859   85.7039   13.7631 C.ar    1  UNL1        0.0398
      6 C          64.1900   86.5320   14.8582 C.ar    1  UNL1        0.1389
      7 C          64.2805   88.0218   14.7091 C.ar    1  UNL1        0.0384
      8 C          63.7668   88.6836   13.4648 C.ar    1  UNL1        0.0208
      9 C          63.1627   87.8555   12.3697 C.ar    1  UNL1        0.0678
     10 N          62.7144   88.7093   11.2207 N.ar    1  UNL1       -0.2791
     11 C          62.8624   90.2018   11.1933 C.ar    1  UNL1        0.1473
     12 C          63.4628   91.0483   12.2762 C.3     1  UNL1        0.0742
     13 N          62.3045   90.6990    9.8928 N.ar    1  UNL1       -0.1333
     14 N          61.8117   89.5139    9.1164 N.ar    1  UNL1       -0.1313
     15 C          62.0651   88.2843    9.9371 C.ar    1  UNL1        0.1697
     16 C          62.5666   83.9307   12.0017 C.ar    1  UNL1        0.0173
     17 C          63.0447   82.8685   11.0565 C.ar    1  UNL1        0.0023
     18 C          63.1001   81.4374   11.5025 C.ar    1  UNL1        0.0114
     19 C          62.6775   81.0684   12.8936 C.ar    1  UNL1        0.0577
     20 CL         62.7329   79.6373   13.3395 Cl      1  UNL1       -0.0822
     21 C          62.1995   82.1305   13.8388 C.ar    1  UNL1        0.0114
     22 C          62.1440   83.5616   13.3929 C.ar    1  UNL1        0.0023
     23 O          64.7038   85.8702   16.1025 O.3     1  UNL1       -0.4714
     24 C          63.7485   85.4662   17.1861 C.3     1  UNL1        0.2525
     25 C          61.0582   86.8043    8.1348 C.3     1  UNL1        0.1170
     26 N          59.8832   88.8536    7.0532 N.am    1  UNL1       -0.3043
     27 C          59.8084   87.5811    7.8439 C.2     1  UNL1        0.2249
     28 O          58.4838   87.0853    8.3436 O.2     1  UNL1       -0.2750
     29 H          60.7526   89.1790    6.7253 H       1  UNL1        0.1494
     30 C          58.6228   90.6495    5.6618 C.3     1  UNL1        0.0230
     31 C          58.6333   89.6303    6.7623 C.3     1  UNL1        0.0894
@<TRIPOS>BOND
     1    30    31    1
     2    31    26    1
     3    26    27   am
     4    27    28    2
     5    27    25    1
     6     1    25    1
     7     1     2    1
     8     2     3    2
     9     3    16    1
    10    16    17   ar
    11    17    18   ar
    12    18    19   ar
    13    19    20    1
    14    19    21   ar
    15    21    22   ar
    16     3     4    1
    17     4     5   ar
    18     5     6   ar
    19     6    23    1
    20    23    24    1
    21     6     7   ar
    22     7     8   ar
    23     8     9   ar
    24     9    10    1
    25    10    11   ar
    26    11    12    1
    27    11    13   ar
    28    13    14   ar
    29    14    15   ar
    30    15     1    1
    31    22    16   ar
    32     9     4   ar
    33    15    10   ar
    34    26    29    1
@<TRIPOS>MOLECULE
*****
 31 34 0 0 0
SMALL
GASTEIGER

@<TRIPOS>ATOM
      1 C          63.5493   90.2462   15.1372 C.3     1  UNL1        0.1707
      2 N          64.8325   90.9852   15.3764 N.2     1  UNL1       -0.2641
      3 C          65.6606   91.7626   14.3967 C.2     1  UNL1        0.0779
      4 C          65.4100   91.9932   12.9358 C.ar    1  UNL1        0.0364
      5 C          66.4904   92.8319   12.3202 C.ar    1  UNL1        0.0398
      6 C          66.4302   93.1807   10.8625 C.ar    1  UNL1        0.1389
      7 C          65.2896   92.6906   10.0206 C.ar    1  UNL1        0.0384
      8 C          64.2092   91.8519   10.6363 C.ar    1  UNL1        0.0208
      9 C          64.2694   91.5031   12.0939 C.ar    1  UNL1        0.0678
     10 N          63.0977   90.6616   12.5049 N.ar    1  UNL1       -0.2791
     11 C          62.0145   90.2350   11.5590 C.ar    1  UNL1        0.1473
     12 C          61.9351   90.5722   10.0996 C.3     1  UNL1        0.0742
     13 N          61.0245   89.4119   12.3288 N.ar    1  UNL1       -0.1333
     14 N          61.4959   89.3299   13.7504 N.ar    1  UNL1       -0.1313
     15 C          62.7771   90.1021   13.8592 C.ar    1  UNL1        0.1697
     16 C          66.9037   92.3929   14.9512 C.ar    1  UNL1        0.0173
     17 C          67.0584   93.8849   14.9371 C.ar    1  UNL1        0.0023
     18 C          68.3015   94.5152   15.4916 C.ar    1  UNL1        0.0114
     19 C          69.3899   93.6536   16.0601 C.ar    1  UNL1        0.0577
     20 CL         70.6329   94.2840   16.6145 Cl      1  UNL1       -0.0822
     21 C          69.2351   92.1617   16.0741 C.ar    1  UNL1        0.0114
     22 C          67.9921   91.5313   15.5197 C.ar    1  UNL1        0.0023
     23 O          67.5107   94.0195   10.2468 O.3     1  UNL1       -0.4714
     24 C          68.2727   93.5081    9.0602 C.3     1  UNL1        0.2525
     25 C          62.9602   89.5605   16.3342 C.3     1  UNL1        0.1170
     26 N          63.7511   87.2513   15.4444 N.am    1  UNL1       -0.3043
     27 C          63.2037   88.0971   16.5557 C.2     1  UNL1        0.2249
     28 O          62.8997   87.4794   17.8884 O.2     1  UNL1       -0.2750
     29 H          63.9506   87.6567   14.5697 H       1  UNL1        0.1494
     30 C          64.7466   84.9894   14.6427 C.3     1  UNL1        0.0230
     31 C          63.9945   85.7878   15.6659 C.3     1  UNL1        0.0894
@<TRIPOS>BOND
     1    30    31    1
     2    31    26    1
     3    26    27   am
     4    27    28    2
     5    27    25    1
     6     1    25    1
     7     1     2    1
     8     2     3    2
     9     3    16    1
    10    16    17   ar
    11    17    18   ar
    12    18    19   ar
    13    19    20    1
    14    19    21   ar
    15    21    22   ar
    16     3     4    1
    17     4     5   ar
    18     5     6   ar
    19     6    23    1
    20    23    24    1
    21     6     7   ar
    22     7     8   ar
    23     8     9   ar
    24     9    10    1
    25    10    11   ar
    26    11    12    1
    27    11    13   ar
    28    13    14   ar
    29    14    15   ar
    30    15     1    1
    31    22    16   ar
    32     9     4   ar
    33    15    10   ar
    34    26    29    1
@<TRIPOS>MOLECULE
*****
 31 34 0 0 0
SMALL
GASTEIGER

@<TRIPOS>ATOM
      1 C          62.9789   88.4608   11.9430 C.3     1  UNL1        0.1707
      2 N          62.6650   87.6354   10.7304 N.2     1  UNL1       -0.2641
      3 C          62.6516   86.1417   10.5938 C.2     1  UNL1        0.0779
      4 C          62.9487   85.1044   11.6359 C.ar    1  UNL1        0.0364
      5 C          62.8207   83.7171   11.0802 C.ar    1  UNL1        0.0398
      6 C          63.0766   82.5300   11.9607 C.ar    1  UNL1        0.1389
      7 C          63.4605   82.7303   13.3969 C.ar    1  UNL1        0.0384
      8 C          63.5885   84.1177   13.9525 C.ar    1  UNL1        0.0208
      9 C          63.3326   85.3047   13.0720 C.ar    1  UNL1        0.0678
     10 N          63.5142   86.5918   13.8207 N.ar    1  UNL1       -0.2791
     11 C          63.9032   86.6580   15.2679 C.ar    1  UNL1        0.1473
     12 C          64.1634   85.4848   16.1655 C.3     1  UNL1        0.0742
     13 N          63.9862   88.1035   15.6599 N.ar    1  UNL1       -0.1333
     14 N          63.6485   88.9306   14.4549 N.ar    1  UNL1       -0.1313
     15 C          63.3568   87.9963   13.3184 C.ar    1  UNL1        0.1697
     16 C          62.2938   85.6156    9.2354 C.ar    1  UNL1        0.0173
     17 C          63.3231   84.8969    8.4144 C.ar    1  UNL1        0.0023
     18 C          62.9652   84.3708    7.0560 C.ar    1  UNL1        0.0114
     19 C          61.5781   84.5635    6.5186 C.ar    1  UNL1        0.0577
     20 CL         61.2204   84.0374    5.1602 Cl      1  UNL1       -0.0822
     21 C          60.5489   85.2822    7.3395 C.ar    1  UNL1        0.0114
     22 C          60.9066   85.8083    8.6979 C.ar    1  UNL1        0.0023
     23 O          62.9486   81.1425   11.4051 O.3     1  UNL1       -0.4714
     24 C          62.6393   79.9942   12.3192 C.3     1  UNL1        0.2525
     25 C          62.9051   89.9472   11.7554 C.3     1  UNL1        0.1170
     26 N          61.0468   89.8646    9.9416 N.am    1  UNL1       -0.3043
     27 C          62.2656   90.5169   10.5240 C.2     1  UNL1        0.2249
     28 O          62.8449   91.7389    9.8749 O.2     1  UNL1       -0.2750
     29 H          60.6666   89.0626   10.3675 H       1  UNL1        0.1494
     30 C          59.7910   89.5198    7.6934 C.3     1  UNL1        0.0230
     31 C          60.4074   90.4344    8.7100 C.3     1  UNL1        0.0894
@<TRIPOS>BOND
     1    30    31    1
     2    31    26    1
     3    26    27   am
     4    27    28    2
     5    27    25    1
     6     1    25    1
     7     1     2    1
     8     2     3    2
     9     3    16    1
    10    16    17   ar
    11    17    18   ar
    12    18    19   ar
    13    19    20    1
    14    19    21   ar
    15    21    22   ar
    16     3     4    1
    17     4     5   ar
    18     5     6   ar
    19     6    23    1
    20    23    24    1
    21     6     7   ar
    22     7     8   ar
    23     8     9   ar
    24     9    10    1
    25    10    11   ar
    26    11    12    1
    27    11    13   ar
    28    13    14   ar
    29    14    15   ar
    30    15     1    1
    31    22    16   ar
    32     9     4   ar
    33    15    10   ar
    34    26    29    1
@<TRIPOS>MOLECULE
*****
 31 34 0 0 0
SMALL
GASTEIGER

@<TRIPOS>ATOM
      1 C          63.1974   84.7151   14.7302 C.3     1  UNL1        0.1707
      2 N          63.1201   85.9717   13.9146 N.2     1  UNL1       -0.2641
      3 C          63.0390   86.1153   12.4237 C.2     1  UNL1        0.0779
      4 C          63.0153   85.0381   11.3801 C.ar    1  UNL1        0.0364
      5 C          62.9277   85.6153    9.9985 C.ar    1  UNL1        0.0398
      6 C          62.8916   84.7055    8.8065 C.ar    1  UNL1        0.1389
      7 C          62.9430   83.2184    8.9962 C.ar    1  UNL1        0.0384
      8 C          63.0306   82.6412   10.3778 C.ar    1  UNL1        0.0208
      9 C          63.0667   83.5510   11.5698 C.ar    1  UNL1        0.0678
     10 N          63.1546   82.7740   12.8499 N.ar    1  UNL1       -0.2791
     11 C          63.1995   81.2756   12.9056 C.ar    1  UNL1        0.1473
     12 C          63.1645   80.3481   11.7273 C.3     1  UNL1        0.0742
     13 N          63.2853   80.8678   14.3465 N.ar    1  UNL1       -0.1333
     14 N          63.2936   82.1140   15.1813 N.ar    1  UNL1       -0.1313
     15 C          63.2128   83.2920   14.2564 C.ar    1  UNL1        0.1697
     16 C          62.9730   87.5224   11.9081 C.ar    1  UNL1        0.0173
     17 C          62.2974   87.8110   10.6003 C.ar    1  UNL1        0.0023
     18 C          62.2313   89.2181   10.0847 C.ar    1  UNL1        0.0114
     19 C          62.8409   90.3365   10.8769 C.ar    1  UNL1        0.0577
     20 CL         62.7748   91.7435   10.3612 Cl      1  UNL1       -0.0822
     21 C          63.5164   90.0479   12.1846 C.ar    1  UNL1        0.0114
     22 C          63.5825   88.6409   12.7003 C.ar    1  UNL1        0.0023
     23 O          62.8040   85.2827    7.4247 O.3     1  UNL1       -0.4714
     24 C          62.1218   84.5136    6.3325 C.3     1  UNL1        0.2525
     25 C          63.2688   84.9072   16.2161 C.3     1  UNL1        0.1170
     26 N          63.4557   87.4979   16.2736 N.am    1  UNL1       -0.3043
     27 C          62.8833   86.2242   16.8216 C.2     1  UNL1        0.2249
     28 O          61.9252   86.2678   17.9750 O.2     1  UNL1       -0.2750
     29 H          64.0845   87.4693   15.5166 H       1  UNL1        0.1494
     30 C          63.4460   90.0947   16.1928 C.3     1  UNL1        0.0230
     31 C          63.0701   88.8150   16.8791 C.3     1  UNL1        0.0894
@<TRIPOS>BOND
     1    30    31    1
     2    31    26    1
     3    26    27   am
     4    27    28    2
     5    27    25    1
     6     1    25    1
     7     1     2    1
     8     2     3    2
     9     3    16    1
    10    16    17   ar
    11    17    18   ar
    12    18    19   ar
    13    19    20    1
    14    19    21   ar
    15    21    22   ar
    16     3     4    1
    17     4     5   ar
    18     5     6   ar
    19     6    23    1
    20    23    24    1
    21     6     7   ar
    22     7     8   ar
    23     8     9   ar
    24     9    10    1
    25    10    11   ar
    26    11    12    1
    27    11    13   ar
    28    13    14   ar
    29    14    15   ar
    30    15     1    1
    31    22    16   ar
    32     9     4   ar
    33    15    10   ar
    34    26    29    1
@<TRIPOS>MOLECULE
*****
 31 34 0 0 0
SMALL
GASTEIGER

@<TRIPOS>ATOM
      1 C          60.5512   94.4876    0.6907 C.3     1  UNL1        0.1707
      2 N          59.1554   94.6952    0.1819 N.2     1  UNL1       -0.2641
      3 C          58.6760   94.7482   -1.2384 C.2     1  UNL1        0.0779
      4 C          59.4738   94.6067   -2.5008 C.ar    1  UNL1        0.0364
      5 C          58.6022   94.7232   -3.7159 C.ar    1  UNL1        0.0398
      6 C          59.2049   94.6102   -5.0848 C.ar    1  UNL1        0.1389
      7 C          60.6793   94.3807   -5.2386 C.ar    1  UNL1        0.0384
      8 C          61.5509   94.2643   -4.0234 C.ar    1  UNL1        0.0208
      9 C          60.9482   94.3773   -2.6545 C.ar    1  UNL1        0.0678
     10 N          61.9888   94.2327   -1.5839 N.ar    1  UNL1       -0.2791
     11 C          63.4433   94.0043   -1.8708 C.ar    1  UNL1        0.1473
     12 C          64.0662   93.8883   -3.2303 C.3     1  UNL1        0.0742
     13 N          64.1655   93.9123   -0.5593 N.ar    1  UNL1       -0.1333
     14 N          63.1574   94.0838    0.5380 N.ar    1  UNL1       -0.1313
     15 C          61.8122   94.2817   -0.0951 C.ar    1  UNL1        0.1697
     16 C          57.2041   94.9724   -1.4205 C.ar    1  UNL1        0.0173
     17 C          56.2919   93.8061   -1.6611 C.ar    1  UNL1        0.0023
     18 C          54.8200   94.0302   -1.8432 C.ar    1  UNL1        0.0114
     19 C          54.2602   95.4206   -1.7848 C.ar    1  UNL1        0.0577
     20 CL         52.7882   95.6447   -1.9669 Cl      1  UNL1       -0.0822
     21 C          55.1722   96.5868   -1.5442 C.ar    1  UNL1        0.0114
     22 C          56.6442   96.3628   -1.3621 C.ar    1  UNL1        0.0023
     23 O          58.3333   94.7267   -6.3001 O.3     1  UNL1       -0.4714
     24 C          58.5159   93.7782   -7.4477 C.3     1  UNL1        0.2525
     25 C          60.7064   94.4856    2.1826 C.3     1  UNL1        0.1170
     26 N          59.3177   93.0017    3.8011 N.am    1  UNL1       -0.3043
     27 C          60.5371   93.2095    2.9526 C.2     1  UNL1        0.2249
     28 O          61.5872   92.1412    2.8741 O.2     1  UNL1       -0.2750
     29 H          58.6285   93.7028    3.8526 H       1  UNL1        0.1494
     30 C          57.7982   91.3424    5.1003 C.3     1  UNL1        0.0230
     31 C          59.1484   91.7255    4.5711 C.3     1  UNL1        0.0894
@<TRIPOS>BOND
     1    30    31    1
     2    31    26    1
     3    26    27   am
     4    27    28    2
     5    27    25    1
     6     1    25    1
     7     1     2    1
     8     2     3    2
     9     3    16    1
    10    16    17   ar
    11    17    18   ar
    12    18    19   ar
    13    19    20    1
    14    19    21   ar
    15    21    22   ar
    16     3     4    1
    17     4     5   ar
    18     5     6   ar
    19     6    23    1
    20    23    24    1
    21     6     7   ar
    22     7     8   ar
    23     8     9   ar
    24     9    10    1
    25    10    11   ar
    26    11    12    1
    27    11    13   ar
    28    13    14   ar
    29    14    15   ar
    30    15     1    1
    31    22    16   ar
    32     9     4   ar
    33    15    10   ar
    34    26    29    1
