@<TRIPOS>MOLECULE
*****
 20 21 0 0 0
SMALL
GASTEIGER

@<TRIPOS>ATOM
      1 C          62.6211   89.3120   10.7711 C.2     1  UNL1        0.0000
      2 C          63.0234   90.7146   10.4236 C.2     1  UNL1        0.0002
      3 C          64.0307   91.4370   11.2682 C.ar    1  UNL1        0.0060
      4 C          64.0495   91.2311   12.7539 C.ar    1  UNL1        0.0368
      5 C          65.0568   91.9536   13.5985 C.ar    1  UNL1        0.1367
      6 O          65.0756   91.7477   15.0842 O.3     1  UNL1       -0.5054
      7 C          66.0453   92.8820   12.9574 C.ar    1  UNL1        0.0732
      8 C          66.0265   93.0878   11.4718 C.ar    1  UNL1        0.1367
      9 O          67.0150   94.0162   10.8307 O.3     1  UNL1       -0.5054
     10 C          65.0192   92.3654   10.6271 C.ar    1  UNL1        0.0368
     11 H          64.4581   91.1677   15.4846 H       1  UNL1        0.2922
     12 H          67.6442   94.4675   11.3583 H       1  UNL1        0.2922
     13 O          58.5919   86.4221    7.3926 O.3     1  UNL1       -0.5055
     14 C          59.5992   87.1446    8.2373 C.ar    1  UNL1        0.1337
     15 C          59.6148   88.6442    8.2679 C.ar    1  UNL1        0.0366
     16 C          60.6221   89.3666    9.1125 C.ar    1  UNL1        0.0031
     17 C          61.6138   88.5895    9.9265 C.ar    1  UNL1        0.0002
     18 C          61.5982   87.0899    9.8958 C.ar    1  UNL1        0.0031
     19 C          60.5909   86.3675    9.0512 C.ar    1  UNL1        0.0366
     20 H          57.9724   86.9076    6.8842 H       1  UNL1        0.2922
@<TRIPOS>BOND
     1    13    14    1
     2    14    15   ar
     3    15    16   ar
     4    16    17   ar
     5    17     1    1
     6     1     2    2
     7     2     3    1
     8     3     4   ar
     9     4     5   ar
    10     5     6    1
    11     5     7   ar
    12     7     8   ar
    13     8     9    1
    14     8    10   ar
    15    17    18   ar
    16    18    19   ar
    17    19    14   ar
    18    10     3   ar
    19    13    20    1
    20     6    11    1
    21     9    12    1
@<TRIPOS>MOLECULE
*****
 20 21 0 0 0
SMALL
GASTEIGER

@<TRIPOS>ATOM
      1 C          62.6151   89.3137   10.7690 C.2     1  UNL1        0.0000
      2 C          63.0243   90.7127   10.4152 C.2     1  UNL1        0.0002
      3 C          64.0302   91.4364   11.2604 C.ar    1  UNL1        0.0060
      4 C          65.0206   92.3629   10.6195 C.ar    1  UNL1        0.0368
      5 C          66.0265   93.0866   11.4647 C.ar    1  UNL1        0.1367
      6 O          67.0170   94.0130   10.8238 O.3     1  UNL1       -0.5054
      7 C          66.0420   92.8838   12.9509 C.ar    1  UNL1        0.0732
      8 C          65.0516   91.9574   13.5918 C.ar    1  UNL1        0.1367
      9 O          65.0671   91.7547   15.0779 O.3     1  UNL1       -0.5054
     10 C          64.0457   91.2337   12.7466 C.ar    1  UNL1        0.0368
     11 H          67.0073   94.1396    9.8955 H       1  UNL1        0.2922
     12 H          65.6954   92.2068   15.6059 H       1  UNL1        0.2922
     13 O          58.5915   86.4189    7.3881 O.3     1  UNL1       -0.5055
     14 C          59.5974   87.1426    8.2333 C.ar    1  UNL1        0.1337
     15 C          59.6060   88.6421    8.2703 C.ar    1  UNL1        0.0366
     16 C          60.6119   89.3658    9.1155 C.ar    1  UNL1        0.0031
     17 C          61.6092   88.5900    9.9238 C.ar    1  UNL1        0.0002
     18 C          61.6007   87.0905    9.8868 C.ar    1  UNL1        0.0031
     19 C          60.5948   86.3668    9.0416 C.ar    1  UNL1        0.0366
     20 H          57.9685   86.9035    6.8831 H       1  UNL1        0.2922
@<TRIPOS>BOND
     1    13    14    1
     2    14    15   ar
     3    15    16   ar
     4    16    17   ar
     5    17     1    1
     6     1     2    2
     7     2     3    1
     8     3     4   ar
     9     4     5   ar
    10     5     6    1
    11     5     7   ar
    12     7     8   ar
    13     8     9    1
    14     8    10   ar
    15    17    18   ar
    16    18    19   ar
    17    19    14   ar
    18    10     3   ar
    19    13    20    1
    20     6    11    1
    21     9    12    1
@<TRIPOS>MOLECULE
*****
 20 21 0 0 0
SMALL
GASTEIGER

@<TRIPOS>ATOM
      1 C          61.8230   86.5397   11.1434 C.2     1  UNL1        0.0000
      2 C          62.0216   85.0550   11.2203 C.2     1  UNL1        0.0002
      3 C          62.7820   84.4584   12.3674 C.ar    1  UNL1        0.0060
      4 C          63.6155   85.3370   13.2525 C.ar    1  UNL1        0.0368
      5 C          64.3760   84.7404   14.3996 C.ar    1  UNL1        0.1367
      6 O          65.2094   85.6189   15.2848 O.3     1  UNL1       -0.5054
      7 C          64.3029   83.2652   14.6616 C.ar    1  UNL1        0.0732
      8 C          63.4694   82.3866   13.7764 C.ar    1  UNL1        0.1367
      9 O          63.3963   80.9115   14.0384 O.3     1  UNL1       -0.5054
     10 C          62.7090   82.9833   12.6293 C.ar    1  UNL1        0.0368
     11 H          65.2551   86.5403   15.1211 H       1  UNL1        0.2922
     12 H          63.8713   80.5389   14.7550 H       1  UNL1        0.2922
     13 O          58.7814   88.9261    6.5550 O.3     1  UNL1       -0.5055
     14 C          59.5418   88.3295    7.7021 C.ar    1  UNL1        0.1337
     15 C          59.7163   86.8426    7.7938 C.ar    1  UNL1        0.0366
     16 C          60.4767   86.2460    8.9409 C.ar    1  UNL1        0.0031
     17 C          61.0626   87.1363    9.9963 C.ar    1  UNL1        0.0002
     18 C          60.8880   88.6233    9.9046 C.ar    1  UNL1        0.0031
     19 C          60.1276   89.2199    8.7575 C.ar    1  UNL1        0.0366
     20 H          58.4154   88.3699    5.8957 H       1  UNL1        0.2922
@<TRIPOS>BOND
     1    13    14    1
     2    14    15   ar
     3    15    16   ar
     4    16    17   ar
     5    17     1    1
     6     1     2    2
     7     2     3    1
     8     3     4   ar
     9     4     5   ar
    10     5     6    1
    11     5     7   ar
    12     7     8   ar
    13     8     9    1
    14     8    10   ar
    15    17    18   ar
    16    18    19   ar
    17    19    14   ar
    18    10     3   ar
    19    13    20    1
    20     6    11    1
    21     9    12    1
@<TRIPOS>MOLECULE
*****
 20 21 0 0 0
SMALL
GASTEIGER

@<TRIPOS>ATOM
      1 C          61.8312   86.5464   11.1405 C.2     1  UNL1        0.0000
      2 C          62.0239   85.0612   11.2229 C.2     1  UNL1        0.0002
      3 C          62.7868   84.4664   12.3693 C.ar    1  UNL1        0.0060
      4 C          62.7153   82.9914   12.6329 C.ar    1  UNL1        0.0368
      5 C          63.4782   82.3966   13.7793 C.ar    1  UNL1        0.1367
      6 O          63.4068   80.9217   14.0429 O.3     1  UNL1       -0.5054
      7 C          64.3126   83.2768   14.6621 C.ar    1  UNL1        0.0732
      8 C          64.3840   84.7516   14.3985 C.ar    1  UNL1        0.1367
      9 O          65.2183   85.6317   15.2812 O.3     1  UNL1       -0.5054
     10 C          63.6211   85.3465   13.2521 C.ar    1  UNL1        0.0368
     11 H          62.8856   80.3719   13.4915 H       1  UNL1        0.2922
     12 H          65.6949   85.2601   15.9973 H       1  UNL1        0.2922
     13 O          58.7797   88.9257    6.5549 O.3     1  UNL1       -0.5055
     14 C          59.5425   88.3309    7.7013 C.ar    1  UNL1        0.1337
     15 C          60.1363   89.2233    8.7505 C.ar    1  UNL1        0.0366
     16 C          60.8992   88.6285    9.8969 C.ar    1  UNL1        0.0031
     17 C          61.0683   87.1412    9.9941 C.ar    1  UNL1        0.0002
     18 C          60.4745   86.2488    8.9449 C.ar    1  UNL1        0.0031
     19 C          59.7116   86.8436    7.7985 C.ar    1  UNL1        0.0366
     20 H          58.6741   89.8547    6.4942 H       1  UNL1        0.2922
@<TRIPOS>BOND
     1    13    14    1
     2    14    15   ar
     3    15    16   ar
     4    16    17   ar
     5    17     1    1
     6     1     2    2
     7     2     3    1
     8     3     4   ar
     9     4     5   ar
    10     5     6    1
    11     5     7   ar
    12     7     8   ar
    13     8     9    1
    14     8    10   ar
    15    17    18   ar
    16    18    19   ar
    17    19    14   ar
    18    10     3   ar
    19    13    20    1
    20     6    11    1
    21     9    12    1
@<TRIPOS>MOLECULE
*****
 20 21 0 0 0
SMALL
GASTEIGER

@<TRIPOS>ATOM
      1 C          62.2375   85.5461   11.8307 C.2     1  UNL1        0.0000
      2 C          61.5428   85.5358   10.5014 C.2     1  UNL1        0.0002
      3 C          61.1213   86.8273    9.8653 C.ar    1  UNL1        0.0060
      4 C          60.0210   86.8372    8.8459 C.ar    1  UNL1        0.0368
      5 C          59.5995   88.1287    8.2098 C.ar    1  UNL1        0.1367
      6 O          58.4993   88.1387    7.1904 O.3     1  UNL1       -0.5054
      7 C          60.2784   89.4102    8.5932 C.ar    1  UNL1        0.0732
      8 C          61.3787   89.4002    9.6126 C.ar    1  UNL1        0.1367
      9 O          62.0576   90.6816    9.9960 O.3     1  UNL1       -0.5054
     10 C          61.8002   88.1087   10.2487 C.ar    1  UNL1        0.0368
     11 H          58.0752   87.3382    6.9509 H       1  UNL1        0.2922
     12 H          61.7943   91.4883    9.5987 H       1  UNL1        0.2922
     13 O          63.9233   80.3804   14.3749 O.3     1  UNL1       -0.5055
     14 C          63.5018   81.6718   13.7389 C.ar    1  UNL1        0.1337
     15 C          63.4173   81.7797   12.2452 C.ar    1  UNL1        0.0366
     16 C          62.9959   83.0711   11.6091 C.ar    1  UNL1        0.0031
     17 C          62.6590   84.2547   12.4668 C.ar    1  UNL1        0.0002
     18 C          62.7435   84.1468   13.9604 C.ar    1  UNL1        0.0031
     19 C          63.1649   82.8554   14.5965 C.ar    1  UNL1        0.0366
     20 H          64.1337   79.6410   13.8391 H       1  UNL1        0.2922
@<TRIPOS>BOND
     1    13    14    1
     2    14    15   ar
     3    15    16   ar
     4    16    17   ar
     5    17     1    1
     6     1     2    2
     7     2     3    1
     8     3     4   ar
     9     4     5   ar
    10     5     6    1
    11     5     7   ar
    12     7     8   ar
    13     8     9    1
    14     8    10   ar
    15    17    18   ar
    16    18    19   ar
    17    19    14   ar
    18    10     3   ar
    19    13    20    1
    20     6    11    1
    21     9    12    1
@<TRIPOS>MOLECULE
*****
 20 21 0 0 0
SMALL
GASTEIGER

@<TRIPOS>ATOM
      1 C          62.2825   85.5404   11.8213 C.2     1  UNL1        0.0000
      2 C          61.5870   85.5215   10.4924 C.2     1  UNL1        0.0002
      3 C          61.1541   86.8080    9.8541 C.ar    1  UNL1        0.0060
      4 C          61.8325   88.0939   10.2233 C.ar    1  UNL1        0.0368
      5 C          61.3996   89.3805    9.5850 C.ar    1  UNL1        0.1367
      6 O          62.0780   90.6663    9.9542 O.3     1  UNL1       -0.5054
      7 C          60.2884   89.3811    8.5774 C.ar    1  UNL1        0.0732
      8 C          59.6100   88.0952    8.2082 C.ar    1  UNL1        0.1367
      9 O          58.4988   88.0958    7.2007 O.3     1  UNL1       -0.5054
     10 C          60.0429   86.8087    8.8466 C.ar    1  UNL1        0.0368
     11 H          62.7721   90.6659   10.5836 H       1  UNL1        0.2922
     12 H          58.2284   88.8995    6.8020 H       1  UNL1        0.2922
     13 O          64.0140   80.3943   14.3746 O.3     1  UNL1       -0.5055
     14 C          63.5811   81.6808   13.7363 C.ar    1  UNL1        0.1337
     15 C          63.1422   81.6959   12.3021 C.ar    1  UNL1        0.0366
     16 C          62.7093   82.9825   11.6637 C.ar    1  UNL1        0.0031
     17 C          62.7153   84.2539   12.4596 C.ar    1  UNL1        0.0002
     18 C          63.1543   84.2387   13.8939 C.ar    1  UNL1        0.0031
     19 C          63.5871   82.9522   14.5322 C.ar    1  UNL1        0.0366
     20 H          64.0102   79.6001   13.8774 H       1  UNL1        0.2922
@<TRIPOS>BOND
     1    13    14    1
     2    14    15   ar
     3    15    16   ar
     4    16    17   ar
     5    17     1    1
     6     1     2    2
     7     2     3    1
     8     3     4   ar
     9     4     5   ar
    10     5     6    1
    11     5     7   ar
    12     7     8   ar
    13     8     9    1
    14     8    10   ar
    15    17    18   ar
    16    18    19   ar
    17    19    14   ar
    18    10     3   ar
    19    13    20    1
    20     6    11    1
    21     9    12    1
@<TRIPOS>MOLECULE
*****
 20 21 0 0 0
SMALL
GASTEIGER

@<TRIPOS>ATOM
      1 C          63.9972   87.2726   14.2008 C.2     1  UNL1        0.0000
      2 C          63.7627   86.0453   15.0307 C.2     1  UNL1        0.0002
      3 C          63.6950   84.6980   14.3747 C.ar    1  UNL1        0.0060
      4 C          64.4704   84.4361   13.1176 C.ar    1  UNL1        0.0368
      5 C          64.4027   83.0888   12.4617 C.ar    1  UNL1        0.1367
      6 O          65.1780   82.8269   11.2046 O.3     1  UNL1       -0.5054
      7 C          63.5596   82.0035   13.0628 C.ar    1  UNL1        0.0732
      8 C          62.7843   82.2655   14.3199 C.ar    1  UNL1        0.1367
      9 O          61.9412   81.1801   14.9210 O.3     1  UNL1       -0.5054
     10 C          62.8520   83.6127   14.9758 C.ar    1  UNL1        0.0368
     11 H          65.7046   83.5048   10.8291 H       1  UNL1        0.2922
     12 H          61.8989   80.3386   14.5112 H       1  UNL1        0.2922
     13 O          64.2680   92.6617   16.8246 O.3     1  UNL1       -0.5055
     14 C          64.2003   91.3144   16.1686 C.ar    1  UNL1        0.1337
     15 C          63.4164   90.2072   16.8085 C.ar    1  UNL1        0.0366
     16 C          63.3486   88.8600   16.1526 C.ar    1  UNL1        0.0031
     17 C          64.0649   88.6199   14.8567 C.ar    1  UNL1        0.0002
     18 C          64.8488   89.7271   14.2168 C.ar    1  UNL1        0.0031
     19 C          64.9165   91.0743   14.8727 C.ar    1  UNL1        0.0366
     20 H          63.8206   92.8117   17.6341 H       1  UNL1        0.2922
@<TRIPOS>BOND
     1    13    14    1
     2    14    15   ar
     3    15    16   ar
     4    16    17   ar
     5    17     1    1
     6     1     2    2
     7     2     3    1
     8     3     4   ar
     9     4     5   ar
    10     5     6    1
    11     5     7   ar
    12     7     8   ar
    13     8     9    1
    14     8    10   ar
    15    17    18   ar
    16    18    19   ar
    17    19    14   ar
    18    10     3   ar
    19    13    20    1
    20     6    11    1
    21     9    12    1
@<TRIPOS>MOLECULE
*****
 20 21 0 0 0
SMALL
GASTEIGER

@<TRIPOS>ATOM
      1 C          62.6498   89.1795   10.6613 C.2     1  UNL1        0.0000
      2 C          62.4348   87.6961   10.7179 C.2     1  UNL1        0.0002
      3 C          61.7639   86.9915    9.5763 C.ar    1  UNL1        0.0060
      4 C          62.5538   86.0686    8.6962 C.ar    1  UNL1        0.0368
      5 C          61.8829   85.3639    7.5546 C.ar    1  UNL1        0.1367
      6 O          62.6727   84.4411    6.6746 O.3     1  UNL1       -0.5054
      7 C          60.4220   85.5821    7.2930 C.ar    1  UNL1        0.0732
      8 C          59.6322   86.5050    8.1730 C.ar    1  UNL1        0.1367
      9 O          58.1714   86.7232    7.9114 O.3     1  UNL1       -0.5054
     10 C          60.3031   87.2096    9.3147 C.ar    1  UNL1        0.0368
     11 H          63.5852   84.3048    6.8380 H       1  UNL1        0.2922
     12 H          57.7523   86.2830    7.1983 H       1  UNL1        0.2922
     13 O          65.3336   91.9982   15.2278 O.3     1  UNL1       -0.5055
     14 C          64.6627   91.2935   14.0862 C.ar    1  UNL1        0.1337
     15 C          64.0963   89.9185   14.2823 C.ar    1  UNL1        0.0366
     16 C          63.4254   89.2138   13.1407 C.ar    1  UNL1        0.0031
     17 C          63.3208   89.8842   11.8029 C.ar    1  UNL1        0.0002
     18 C          63.8871   91.2592   11.6068 C.ar    1  UNL1        0.0031
     19 C          64.5581   91.9639   12.7484 C.ar    1  UNL1        0.0366
     20 H          65.3989   91.5794   16.0635 H       1  UNL1        0.2922
@<TRIPOS>BOND
     1    13    14    1
     2    14    15   ar
     3    15    16   ar
     4    16    17   ar
     5    17     1    1
     6     1     2    2
     7     2     3    1
     8     3     4   ar
     9     4     5   ar
    10     5     6    1
    11     5     7   ar
    12     7     8   ar
    13     8     9    1
    14     8    10   ar
    15    17    18   ar
    16    18    19   ar
    17    19    14   ar
    18    10     3   ar
    19    13    20    1
    20     6    11    1
    21     9    12    1
@<TRIPOS>MOLECULE
*****
 20 21 0 0 0
SMALL
GASTEIGER

@<TRIPOS>ATOM
      1 C          62.6964   89.1048   10.7006 C.2     1  UNL1        0.0000
      2 C          62.3391   87.6506   10.7869 C.2     1  UNL1        0.0002
      3 C          61.7073   86.9626    9.6132 C.ar    1  UNL1        0.0060
      4 C          60.2566   87.1869    9.3041 C.ar    1  UNL1        0.0368
      5 C          59.6249   86.4989    8.1304 C.ar    1  UNL1        0.1367
      6 O          58.1743   86.7231    7.8213 O.3     1  UNL1       -0.5054
      7 C          60.4437   85.5867    7.2658 C.ar    1  UNL1        0.0732
      8 C          61.8943   85.3625    7.5750 C.ar    1  UNL1        0.1367
      9 O          62.7130   84.4503    6.7104 O.3     1  UNL1       -0.5054
     10 C          62.5260   86.0505    8.7486 C.ar    1  UNL1        0.0368
     11 H          57.6628   87.2929    8.3613 H       1  UNL1        0.2922
     12 H          62.3183   84.0205    5.9772 H       1  UNL1        0.2922
     13 O          65.2236   91.8568   15.3953 O.3     1  UNL1       -0.5055
     14 C          64.5918   91.1688   14.2216 C.ar    1  UNL1        0.1337
     15 C          64.1031   89.7569   14.3538 C.ar    1  UNL1        0.0366
     16 C          63.4713   89.0689   13.1802 C.ar    1  UNL1        0.0031
     17 C          63.3282   89.7928   11.8743 C.ar    1  UNL1        0.0002
     18 C          63.8169   91.2048   11.7421 C.ar    1  UNL1        0.0031
     19 C          64.4487   91.8927   12.9158 C.ar    1  UNL1        0.0366
     20 H          65.3129   91.4045   16.2111 H       1  UNL1        0.2922
@<TRIPOS>BOND
     1    13    14    1
     2    14    15   ar
     3    15    16   ar
     4    16    17   ar
     5    17     1    1
     6     1     2    2
     7     2     3    1
     8     3     4   ar
     9     4     5   ar
    10     5     6    1
    11     5     7   ar
    12     7     8   ar
    13     8     9    1
    14     8    10   ar
    15    17    18   ar
    16    18    19   ar
    17    19    14   ar
    18    10     3   ar
    19    13    20    1
    20     6    11    1
    21     9    12    1
