@<TRIPOS>MOLECULE
*****
 32 36 0 0 0
SMALL
GASTEIGER

@<TRIPOS>ATOM
      1 C          62.9338   85.1989   12.9621 C.ar    1  UNL1        0.1035
      2 C          62.5704   84.1382   13.9585 C.ar    1  UNL1        0.1197
      3 N          62.7982   84.6953   15.3324 N.ar    1  UNL1       -0.2234
      4 C          63.3024   86.1004   15.1852 C.ar    1  UNL1        0.1639
      5 C          63.6960   87.1365   16.1958 C.ar    1  UNL1        0.0404
      6 C          64.1734   88.4840   15.7414 C.ar    1  UNL1        0.0240
      7 C          64.2572   88.7952   14.2765 C.ar    1  UNL1        0.1014
      8 N          63.8636   87.7591   13.2659 N.ar    1  UNL1       -0.1638
      9 N          63.3862   86.4116   13.7202 N.ar    1  UNL1       -0.2107
     10 C          62.7067   84.8112    8.4845 C.ar    1  UNL1        0.0684
     11 C          61.9891   85.9312    9.1777 C.ar    1  UNL1        0.0103
     12 C          62.0648   86.0604   10.6702 C.ar    1  UNL1        0.0022
     13 C          62.8581   85.0697   11.4696 C.ar    1  UNL1        0.0193
     14 C          63.5758   83.9496   10.7764 C.ar    1  UNL1        0.0022
     15 C          63.5001   83.8204    9.2839 C.ar    1  UNL1        0.0103
     16 N          62.5552   84.5527    5.4996 N.1     1  UNL1       -0.1908
     17 C          62.6310   84.6819    6.9920 C.1     1  UNL1        0.1004
     18 C          64.7346   90.1427   13.8221 C.ar    1  UNL1        0.0194
     19 C          65.8399   90.8356   14.5624 C.ar    1  UNL1        0.0017
     20 C          66.3173   92.1832   14.1081 C.ar    1  UNL1        0.0046
     21 C          65.6893   92.8377   12.9134 C.ar    1  UNL1        0.0536
     22 C          64.5840   92.1447   12.1731 C.ar    1  UNL1        0.0046
     23 C          64.1066   90.7973   12.6275 C.ar    1  UNL1        0.0017
     24 C          66.1667   94.1852   12.4591 C.2     1  UNL1        0.2491
     25 O          66.1767   95.3395   13.4169 O.2     1  UNL1       -0.2699
     26 N          66.6341   94.3782   11.0469 N.am    1  UNL1       -0.2732
     27 C          66.6242   93.2239   10.0891 C.3     1  UNL1        0.1108
     28 C          67.0916   93.4170    8.6769 C.3     1  UNL1        0.0904
     29 N          67.5690   94.7645    8.2226 N.3     1  UNL1       -0.2946
     30 C          67.5789   95.9188    9.1804 C.3     1  UNL1        0.0904
     31 C          67.1115   95.7257   10.5925 C.3     1  UNL1        0.1108
     32 H          66.9767   95.0377    7.4384 H       1  UNL1        0.1233
@<TRIPOS>BOND
     1    16    17    3
     2    17    10    1
     3    10    11   ar
     4    11    12   ar
     5    12    13   ar
     6    13     1    1
     7     1     2   ar
     8     2     3   ar
     9     3     4   ar
    10     4     5   ar
    11     5     6   ar
    12     6     7   ar
    13     7    18    1
    14    18    19   ar
    15    19    20   ar
    16    20    21   ar
    17    21    24    1
    18    24    25    2
    19    24    26   am
    20    26    27    1
    21    27    28    1
    22    28    29    1
    23    29    30    1
    24    30    31    1
    25    21    22   ar
    26    22    23   ar
    27     7     8   ar
    28     8     9   ar
    29    13    14   ar
    30    14    15   ar
    31    15    10   ar
    32     9     1   ar
    33     9     4   ar
    34    23    18   ar
    35    31    26    1
    36    29    32    1
@<TRIPOS>MOLECULE
*****
 32 36 0 0 0
SMALL
GASTEIGER

@<TRIPOS>ATOM
      1 C          63.1306   85.7122   15.5961 C.ar    1  UNL1        0.1035
      2 C          62.5627   85.1545   16.8675 C.ar    1  UNL1        0.1197
      3 N          62.4261   86.2816   17.8477 N.ar    1  UNL1       -0.2234
      4 C          62.9094   87.5360   17.1822 C.ar    1  UNL1        0.1639
      5 C          63.0093   88.9531   17.6635 C.ar    1  UNL1        0.0404
      6 C          63.5446   90.0184   16.7532 C.ar    1  UNL1        0.0240
      7 C          63.9800   89.6664   15.3616 C.ar    1  UNL1        0.1014
      8 N          63.8801   88.2493   14.8803 N.ar    1  UNL1       -0.1638
      9 N          63.3448   87.1841   15.7906 N.ar    1  UNL1       -0.2107
     10 C          64.0329   83.3796   11.8551 C.ar    1  UNL1        0.0684
     11 C          64.6320   82.9588   13.1642 C.ar    1  UNL1        0.0103
     12 C          64.3313   83.7363   14.4112 C.ar    1  UNL1        0.0022
     13 C          63.4313   84.9347   14.3491 C.ar    1  UNL1        0.0193
     14 C          62.8321   85.3556   13.0399 C.ar    1  UNL1        0.0022
     15 C          63.1329   84.5780   11.7930 C.ar    1  UNL1        0.0103
     16 N          64.6344   81.8246    9.3612 N.1     1  UNL1       -0.1908
     17 C          64.3336   82.6020   10.6081 C.1     1  UNL1        0.1004
     18 C          64.5154   90.7317   14.4512 C.ar    1  UNL1        0.0194
     19 C          63.9163   90.9256   13.0899 C.ar    1  UNL1        0.0017
     20 C          64.4516   91.9909   12.1795 C.ar    1  UNL1        0.0046
     21 C          65.5861   92.8623   12.6307 C.ar    1  UNL1        0.0536
     22 C          66.1852   92.6685   13.9922 C.ar    1  UNL1        0.0046
     23 C          65.6499   91.6032   14.9024 C.ar    1  UNL1        0.0017
     24 C          66.1214   93.9276   11.7205 C.2     1  UNL1        0.2491
     25 O          65.8038   95.3695   11.9852 O.2     1  UNL1       -0.2699
     26 N          66.9743   93.5510   10.5455 N.am    1  UNL1       -0.2732
     27 C          67.2919   92.1091   10.2807 C.3     1  UNL1        0.1108
     28 C          68.1449   91.7325    9.1057 C.3     1  UNL1        0.0904
     29 N          68.6802   92.7977    8.1954 N.3     1  UNL1       -0.2946
     30 C          68.3627   94.2396    8.4602 C.3     1  UNL1        0.0904
     31 C          67.5097   94.6163    9.6352 C.3     1  UNL1        0.1108
     32 H          68.3336   92.5869    7.2596 H       1  UNL1        0.1233
@<TRIPOS>BOND
     1    16    17    3
     2    17    10    1
     3    10    11   ar
     4    11    12   ar
     5    12    13   ar
     6    13     1    1
     7     1     2   ar
     8     2     3   ar
     9     3     4   ar
    10     4     5   ar
    11     5     6   ar
    12     6     7   ar
    13     7    18    1
    14    18    19   ar
    15    19    20   ar
    16    20    21   ar
    17    21    24    1
    18    24    25    2
    19    24    26   am
    20    26    27    1
    21    27    28    1
    22    28    29    1
    23    29    30    1
    24    30    31    1
    25    21    22   ar
    26    22    23   ar
    27     7     8   ar
    28     8     9   ar
    29    13    14   ar
    30    14    15   ar
    31    15    10   ar
    32     9     1   ar
    33     9     4   ar
    34    23    18   ar
    35    31    26    1
    36    29    32    1
@<TRIPOS>MOLECULE
*****
 32 36 0 0 0
SMALL
GASTEIGER

@<TRIPOS>ATOM
      1 C          59.5027   88.8902    7.2534 C.ar    1  UNL1        0.1035
      2 C          58.6522   87.6553    7.2153 C.ar    1  UNL1        0.1197
      3 N          58.9183   86.8705    8.4656 N.ar    1  UNL1       -0.2234
      4 C          59.9332   87.6204    9.2765 C.ar    1  UNL1        0.1639
      5 C          60.5752   87.3279   10.6002 C.ar    1  UNL1        0.0404
      6 C          61.5783   88.2837   11.1747 C.ar    1  UNL1        0.0240
      7 C          61.9395   89.5320   10.4255 C.ar    1  UNL1        0.1014
      8 N          61.2976   89.8245    9.1018 N.ar    1  UNL1       -0.1638
      9 N          60.2944   88.8687    8.5272 N.ar    1  UNL1       -0.2107
     10 C          59.6529   92.0968    4.0998 C.ar    1  UNL1        0.0684
     11 C          58.3416   91.7167    4.7210 C.ar    1  UNL1        0.0103
     12 C          58.2916   90.6479    5.7723 C.ar    1  UNL1        0.0022
     13 C          59.5527   89.9591    6.2022 C.ar    1  UNL1        0.0193
     14 C          60.8641   90.3392    5.5809 C.ar    1  UNL1        0.0022
     15 C          60.9141   91.4081    4.5297 C.ar    1  UNL1        0.0103
     16 N          59.7530   94.2345    1.9974 N.1     1  UNL1       -0.1908
     17 C          59.7029   93.1657    3.0485 C.1     1  UNL1        0.1004
     18 C          62.9427   90.4878   11.0001 C.ar    1  UNL1        0.0194
     19 C          63.2383   90.4707   12.4705 C.ar    1  UNL1        0.0017
     20 C          64.2415   91.4265   13.0451 C.ar    1  UNL1        0.0046
     21 C          64.9491   92.3994   12.1492 C.ar    1  UNL1        0.0536
     22 C          64.6536   92.4165   10.6786 C.ar    1  UNL1        0.0046
     23 C          63.6504   91.4607   10.1041 C.ar    1  UNL1        0.0017
     24 C          65.9523   93.3552   12.7237 C.2     1  UNL1        0.2491
     25 O          66.1318   94.7123   12.1106 O.2     1  UNL1       -0.2699
     26 N          66.7759   92.9538   13.9113 N.am    1  UNL1       -0.2732
     27 C          66.5964   91.5966   14.5243 C.3     1  UNL1        0.1108
     28 C          67.4202   91.1952   15.7120 C.3     1  UNL1        0.0904
     29 N          68.4233   92.1510   16.2865 N.3     1  UNL1       -0.2946
     30 C          68.6028   93.5082   15.6734 C.3     1  UNL1        0.0904
     31 C          67.7792   93.9096   14.4858 C.3     1  UNL1        0.1108
     32 H          69.3304   91.6865   16.2442 H       1  UNL1        0.1233
@<TRIPOS>BOND
     1    16    17    3
     2    17    10    1
     3    10    11   ar
     4    11    12   ar
     5    12    13   ar
     6    13     1    1
     7     1     2   ar
     8     2     3   ar
     9     3     4   ar
    10     4     5   ar
    11     5     6   ar
    12     6     7   ar
    13     7    18    1
    14    18    19   ar
    15    19    20   ar
    16    20    21   ar
    17    21    24    1
    18    24    25    2
    19    24    26   am
    20    26    27    1
    21    27    28    1
    22    28    29    1
    23    29    30    1
    24    30    31    1
    25    21    22   ar
    26    22    23   ar
    27     7     8   ar
    28     8     9   ar
    29    13    14   ar
    30    14    15   ar
    31    15    10   ar
    32     9     1   ar
    33     9     4   ar
    34    23    18   ar
    35    31    26    1
    36    29    32    1
@<TRIPOS>MOLECULE
*****
 32 36 0 0 0
SMALL
GASTEIGER

@<TRIPOS>ATOM
      1 C          63.1165   86.3507   15.6553 C.ar    1  UNL1        0.1035
      2 C          62.4392   86.1186   16.9735 C.ar    1  UNL1        0.1197
      3 N          62.4402   87.4141   17.7295 N.ar    1  UNL1       -0.2234
      4 C          63.1180   88.4469   16.8786 C.ar    1  UNL1        0.1639
      5 C          63.4086   89.9009   17.1055 C.ar    1  UNL1        0.0404
      6 C          64.1172   90.6976   16.0505 C.ar    1  UNL1        0.0240
      7 C          64.5351   90.0403   14.7686 C.ar    1  UNL1        0.1014
      8 N          64.2445   88.5864   14.5417 N.ar    1  UNL1       -0.1638
      9 N          63.5360   87.7897   15.5967 N.ar    1  UNL1       -0.2107
     10 C          63.7743   83.2708   12.4411 C.ar    1  UNL1        0.0684
     11 C          63.2467   84.6283   12.0823 C.ar    1  UNL1        0.0103
     12 C          63.0275   85.6549   13.1538 C.ar    1  UNL1        0.0022
     13 C          63.3357   85.3241   14.5839 C.ar    1  UNL1        0.0193
     14 C          63.8634   83.9665   14.9427 C.ar    1  UNL1        0.0022
     15 C          64.0826   82.9398   13.8712 C.ar    1  UNL1        0.0103
     16 N          64.2127   81.2176   10.2982 N.1     1  UNL1       -0.1908
     17 C          63.9936   82.2441   11.3696 C.1     1  UNL1        0.1004
     18 C          65.2438   90.8371   13.7135 C.ar    1  UNL1        0.0194
     19 C          64.5336   91.1976   12.4424 C.ar    1  UNL1        0.0017
     20 C          65.2422   91.9943   11.3874 C.ar    1  UNL1        0.0046
     21 C          66.6610   92.4306   11.6035 C.ar    1  UNL1        0.0536
     22 C          67.3712   92.0701   12.8746 C.ar    1  UNL1        0.0046
     23 C          66.6625   91.2734   13.9296 C.ar    1  UNL1        0.0017
     24 C          67.3696   93.2274   10.5485 C.2     1  UNL1        0.2491
     25 O          68.7366   92.8150   10.0889 O.2     1  UNL1       -0.2699
     26 N          66.7112   94.4365    9.9531 N.am    1  UNL1       -0.2732
     27 C          65.3442   94.8488   10.4127 C.3     1  UNL1        0.1108
     28 C          64.6858   96.0580    9.8172 C.3     1  UNL1        0.0904
     29 N          65.3944   96.8547    8.7622 N.3     1  UNL1       -0.2946
     30 C          66.7614   96.4424    8.3027 C.3     1  UNL1        0.0904
     31 C          67.4198   95.2333    8.8981 C.3     1  UNL1        0.1108
     32 H          65.4783   97.8066    9.1189 H       1  UNL1        0.1233
@<TRIPOS>BOND
     1    16    17    3
     2    17    10    1
     3    10    11   ar
     4    11    12   ar
     5    12    13   ar
     6    13     1    1
     7     1     2   ar
     8     2     3   ar
     9     3     4   ar
    10     4     5   ar
    11     5     6   ar
    12     6     7   ar
    13     7    18    1
    14    18    19   ar
    15    19    20   ar
    16    20    21   ar
    17    21    24    1
    18    24    25    2
    19    24    26   am
    20    26    27    1
    21    27    28    1
    22    28    29    1
    23    29    30    1
    24    30    31    1
    25    21    22   ar
    26    22    23   ar
    27     7     8   ar
    28     8     9   ar
    29    13    14   ar
    30    14    15   ar
    31    15    10   ar
    32     9     1   ar
    33     9     4   ar
    34    23    18   ar
    35    31    26    1
    36    29    32    1
@<TRIPOS>MOLECULE
*****
 32 36 0 0 0
SMALL
GASTEIGER

@<TRIPOS>ATOM
      1 C          61.6300   85.7541   10.1440 C.ar    1  UNL1        0.1035
      2 C          60.7518   85.6051    8.9372 C.ar    1  UNL1        0.1197
      3 N          60.4494   86.9772    8.4118 N.ar    1  UNL1       -0.2234
      4 C          61.1408   87.9741    9.2939 C.ar    1  UNL1        0.1639
      5 C          61.2002   89.4725    9.2605 C.ar    1  UNL1        0.0404
      6 C          61.9893   90.2150   10.2978 C.ar    1  UNL1        0.0240
      7 C          62.7190   89.4591   11.3684 C.ar    1  UNL1        0.1014
      8 N          62.6596   87.9607   11.4017 N.ar    1  UNL1       -0.1638
      9 N          61.8705   87.2182   10.3645 N.ar    1  UNL1       -0.2107
     10 C          63.2578   82.3980   12.6614 C.ar    1  UNL1        0.0684
     11 C          63.2727   82.2888   11.1655 C.ar    1  UNL1        0.0103
     12 C          62.7302   83.4075   10.3264 C.ar    1  UNL1        0.0022
     13 C          62.1726   84.6354   10.9831 C.ar    1  UNL1        0.0193
     14 C          62.1576   84.7446   12.4791 C.ar    1  UNL1        0.0022
     15 C          62.7002   83.6259   13.3182 C.ar    1  UNL1        0.0103
     16 N          64.3428   80.1605   14.3395 N.1     1  UNL1       -0.1908
     17 C          63.8003   81.2793   13.5005 C.1     1  UNL1        0.1004
     18 C          63.5081   90.2017   12.4057 C.ar    1  UNL1        0.0194
     19 C          63.5723   89.6840   13.8120 C.ar    1  UNL1        0.0017
     20 C          64.3614   90.4266   14.8494 C.ar    1  UNL1        0.0046
     21 C          65.0862   91.6869   14.4803 C.ar    1  UNL1        0.0536
     22 C          65.0219   92.2047   13.0739 C.ar    1  UNL1        0.0046
     23 C          64.2329   91.4621   12.0367 C.ar    1  UNL1        0.0017
     24 C          65.8753   92.4295   15.5175 C.2     1  UNL1        0.2491
     25 O          65.1992   92.9259   16.7611 O.2     1  UNL1       -0.2699
     26 N          67.3405   92.6756   15.3112 N.am    1  UNL1       -0.2732
     27 C          68.0166   92.1792   14.0677 C.3     1  UNL1        0.1108
     28 C          69.4819   92.4253   13.8614 C.3     1  UNL1        0.0904
     29 N          70.2709   93.1679   14.8986 N.3     1  UNL1       -0.2946
     30 C          69.5948   93.6644   16.1421 C.3     1  UNL1        0.0904
     31 C          68.1296   93.4183   16.3485 C.3     1  UNL1        0.1108
     32 H          70.6716   93.9837   14.4356 H       1  UNL1        0.1233
@<TRIPOS>BOND
     1    16    17    3
     2    17    10    1
     3    10    11   ar
     4    11    12   ar
     5    12    13   ar
     6    13     1    1
     7     1     2   ar
     8     2     3   ar
     9     3     4   ar
    10     4     5   ar
    11     5     6   ar
    12     6     7   ar
    13     7    18    1
    14    18    19   ar
    15    19    20   ar
    16    20    21   ar
    17    21    24    1
    18    24    25    2
    19    24    26   am
    20    26    27    1
    21    27    28    1
    22    28    29    1
    23    29    30    1
    24    30    31    1
    25    21    22   ar
    26    22    23   ar
    27     7     8   ar
    28     8     9   ar
    29    13    14   ar
    30    14    15   ar
    31    15    10   ar
    32     9     1   ar
    33     9     4   ar
    34    23    18   ar
    35    31    26    1
    36    29    32    1
@<TRIPOS>MOLECULE
*****
 32 36 0 0 0
SMALL
GASTEIGER

@<TRIPOS>ATOM
      1 C          61.2764   86.2250    9.4394 C.ar    1  UNL1        0.1035
      2 C          60.1446   85.9091    8.5071 C.ar    1  UNL1        0.1197
      3 N          59.6103   87.2043    7.9713 N.ar    1  UNL1       -0.2234
      4 C          60.4118   88.3206    8.5725 C.ar    1  UNL1        0.1639
      5 C          60.3371   89.8099    8.4109 C.ar    1  UNL1        0.0404
      6 C          61.2921   90.6941    9.1566 C.ar    1  UNL1        0.0240
      7 C          62.3218   90.0889   10.0640 C.ar    1  UNL1        0.1014
      8 N          62.3966   88.5995   10.2256 N.ar    1  UNL1       -0.1638
      9 N          61.4416   87.7154    9.4798 N.ar    1  UNL1       -0.2107
     10 C          63.7435   83.2278   11.7156 C.ar    1  UNL1        0.0684
     11 C          62.7814   84.1170   12.4463 C.ar    1  UNL1        0.0103
     12 C          61.9591   85.1160   11.6876 C.ar    1  UNL1        0.0022
     13 C          62.0988   85.2260   10.1982 C.ar    1  UNL1        0.0193
     14 C          63.0608   84.3368    9.4675 C.ar    1  UNL1        0.0022
     15 C          63.8832   83.3377   10.2262 C.ar    1  UNL1        0.0103
     16 N          65.3880   81.2298   13.2332 N.1     1  UNL1       -0.1908
     17 C          64.5658   82.2288   12.4744 C.1     1  UNL1        0.1004
     18 C          63.2769   90.9731   10.8098 C.ar    1  UNL1        0.0194
     19 C          63.4200   90.8368   12.2967 C.ar    1  UNL1        0.0017
     20 C          64.3750   91.7210   13.0425 C.ar    1  UNL1        0.0046
     21 C          65.1869   92.7416   12.3013 C.ar    1  UNL1        0.0536
     22 C          65.0437   92.8778   10.8143 C.ar    1  UNL1        0.0046
     23 C          64.0887   91.9936   10.0686 C.ar    1  UNL1        0.0017
     24 C          66.1418   93.6258   13.0470 C.2     1  UNL1        0.2491
     25 O          66.2273   95.0860   12.7148 O.2     1  UNL1       -0.2699
     26 N          67.0114   93.0497   14.1249 N.am    1  UNL1       -0.2732
     27 C          66.9260   91.5895   14.4572 C.3     1  UNL1        0.1108
     28 C          67.7956   91.0135   15.5352 C.3     1  UNL1        0.0904
     29 N          68.7506   91.8977   16.2809 N.3     1  UNL1       -0.2946
     30 C          68.8360   93.3579   15.9487 C.3     1  UNL1        0.0904
     31 C          67.9665   93.9339   14.8707 C.3     1  UNL1        0.1108
     32 H          69.6830   91.5087   16.1404 H       1  UNL1        0.1233
@<TRIPOS>BOND
     1    16    17    3
     2    17    10    1
     3    10    11   ar
     4    11    12   ar
     5    12    13   ar
     6    13     1    1
     7     1     2   ar
     8     2     3   ar
     9     3     4   ar
    10     4     5   ar
    11     5     6   ar
    12     6     7   ar
    13     7    18    1
    14    18    19   ar
    15    19    20   ar
    16    20    21   ar
    17    21    24    1
    18    24    25    2
    19    24    26   am
    20    26    27    1
    21    27    28    1
    22    28    29    1
    23    29    30    1
    24    30    31    1
    25    21    22   ar
    26    22    23   ar
    27     7     8   ar
    28     8     9   ar
    29    13    14   ar
    30    14    15   ar
    31    15    10   ar
    32     9     1   ar
    33     9     4   ar
    34    23    18   ar
    35    31    26    1
    36    29    32    1
