@<TRIPOS>MOLECULE
*****
 41 46 0 0 0
SMALL
GASTEIGER

@<TRIPOS>ATOM
      1 N          60.4942   92.6753    2.4288 N.am    1  UNL1       -0.1907
      2 C          61.7737   93.2472    1.8939 C.2     1  UNL1        0.3219
      3 O          63.1234   93.1442    2.5399 O.2     1  UNL1       -0.2512
      4 N          61.4662   93.9403    0.5996 N.am    1  UNL1       -0.2222
      5 C          59.9968   93.7967    0.3345 C.3     1  UNL1        0.1391
      6 C          58.5193   93.5729    0.2042 C.3     1  UNL1        0.0449
      7 C          57.7804   94.1158   -0.9829 C.3     1  UNL1        0.0746
      8 N          58.5189   94.8825   -2.0396 N.3     1  UNL1       -0.2676
      9 C          59.9964   95.1063   -1.9093 C.3     1  UNL1        0.0746
     10 C          60.7353   94.5634   -0.7222 C.3     1  UNL1        0.0449
     11 C          59.3961   93.0150    1.4650 C.2     1  UNL1        0.2529
     12 O          57.9509   92.6388    1.6069 O.2     1  UNL1       -0.2724
     13 C          62.4546   94.6519   -0.2759 C.ar    1  UNL1        0.1453
     14 C          63.1168   93.9220   -1.4067 C.ar    1  UNL1        0.0922
     15 C          64.1051   94.6337   -2.2822 C.ar    1  UNL1        0.2259
     16 O          64.7673   93.9038   -3.4130 O.3     1  UNL1       -0.4919
     17 N          64.4314   96.0754   -2.0270 N.ar    1  UNL1       -0.1894
     18 C          63.7692   96.8054   -0.8962 C.ar    1  UNL1        0.2027
     19 N          62.7809   96.0936   -0.0207 N.ar    1  UNL1       -0.2084
     20 H          64.5635   93.0032   -3.5725 H       1  UNL1        0.2938
     21 C          60.0317   90.3493    6.2531 C.ar    1  UNL1        0.0073
     22 C          58.8556   91.0749    5.6696 C.ar    1  UNL1        0.0018
     23 C          59.0098   91.8502    4.3949 C.ar    1  UNL1        0.0154
     24 C          60.3401   91.9000    3.7036 C.ar    1  UNL1        0.0622
     25 C          61.5161   91.1745    4.2871 C.ar    1  UNL1        0.0154
     26 C          61.3619   90.3992    5.5618 C.ar    1  UNL1        0.0018
     27 C          59.8979   89.0878   11.3787 C.3     1  UNL1        0.0594
     28 C          59.8160   88.9941    9.8839 C.ar    1  UNL1        0.0882
     29 N          59.4645   87.7675    9.0953 N.ar    1  UNL1       -0.2470
     30 C          59.5025   88.1259    7.6393 C.ar    1  UNL1        0.0655
     31 C          59.2158   87.1989    6.4953 C.3     1  UNL1        0.0526
     32 C          59.8775   89.5740    7.5279 C.ar    1  UNL1        0.0441
     33 S          60.0713   90.1106    8.9151 S.2     1  UNL1       -0.0711
     34 C          57.7799   95.4254   -3.2268 C.3     1  UNL1        0.1183
     35 C          57.2147   94.4872   -4.2516 C.ar    1  UNL1        0.0712
     36 N          57.7518   93.0916   -4.3680 N.ar    1  UNL1       -0.2471
     37 C          57.1865   92.1534   -5.3929 C.ar    1  UNL1        0.0985
     38 C          56.0840   92.6109   -6.3013 C.ar    1  UNL1        0.0203
     39 C          55.5469   94.0066   -6.1849 C.ar    1  UNL1       -0.0015
     40 C          56.1121   94.9447   -5.1601 C.ar    1  UNL1       -0.0069
     41 C          55.5750   96.3404   -5.0437 C.3     1  UNL1        0.0323
@<TRIPOS>BOND
     1    27    28    1
     2    28    29   ar
     3    29    30   ar
     4    30    31    1
     5    30    32   ar
     6    32    21    1
     7    21    22   ar
     8    22    23   ar
     9    23    24   ar
    10    24     1    1
    11     1     2   am
    12     2     3    2
    13     2     4   am
    14     4    13    1
    15    13    14   ar
    16    14    15   ar
    17    15    16    1
    18    15    17   ar
    19    17    18   ar
    20    18    19   ar
    21     4     5    1
    22     5     6    1
    23     6     7    1
    24     7     8    1
    25     8    34    1
    26    34    35    1
    27    35    36   ar
    28    36    37   ar
    29    37    38   ar
    30    38    39   ar
    31    39    40   ar
    32    40    41    1
    33     8     9    1
    34     9    10    1
    35     5    11    1
    36    11    12    2
    37    24    25   ar
    38    25    26   ar
    39    32    33   ar
    40    33    28   ar
    41    26    21   ar
    42    11     1   am
    43    19    13   ar
    44    10     5    1
    45    40    35   ar
    46    16    20    1
@<TRIPOS>MOLECULE
*****
 41 46 0 0 0
SMALL
GASTEIGER

@<TRIPOS>ATOM
      1 N          60.4369   92.4610    2.4904 N.am    1  UNL1       -0.1907
      2 C          59.3127   92.9316    1.6158 C.2     1  UNL1        0.3219
      3 O          57.8489   92.7478    1.8864 O.2     1  UNL1       -0.2512
      4 N          59.9095   93.6183    0.4232 N.am    1  UNL1       -0.2222
      5 C          61.4025   93.5721    0.5606 C.3     1  UNL1        0.1391
      6 C          62.8724   93.4492    0.8331 C.3     1  UNL1        0.0449
      7 C          63.8651   94.0183   -0.1367 C.3     1  UNL1        0.0746
      8 N          63.3879   94.7104   -1.3790 N.3     1  UNL1       -0.2676
      9 C          61.9180   94.8334   -1.6515 C.3     1  UNL1        0.0746
     10 C          60.9253   94.2642   -0.6817 C.3     1  UNL1        0.0449
     11 C          61.7285   92.8569    1.8382 C.2     1  UNL1        0.2529
     12 O          63.1044   92.5852    2.3703 O.2     1  UNL1       -0.2724
     13 C          59.1472   94.2417   -0.7082 C.ar    1  UNL1        0.1453
     14 C          58.8641   93.4480   -1.9492 C.ar    1  UNL1        0.0922
     15 C          58.1018   94.0716   -3.0806 C.ar    1  UNL1        0.2259
     16 O          57.8187   93.2779   -4.3215 O.3     1  UNL1       -0.4919
     17 N          57.6225   95.4887   -2.9711 N.ar    1  UNL1       -0.1894
     18 C          57.9056   96.2824   -1.7302 C.ar    1  UNL1        0.2027
     19 N          58.6679   95.6589   -0.5988 N.ar    1  UNL1       -0.2084
     20 H          58.1180   92.3927   -4.3899 H       1  UNL1        0.2938
     21 C          60.0099   90.2499    6.3863 C.ar    1  UNL1        0.0073
     22 C          61.3479   90.3319    5.7132 C.ar    1  UNL1        0.0018
     23 C          61.4902   91.0689    4.4146 C.ar    1  UNL1        0.0154
     24 C          60.2946   91.7240    3.7890 C.ar    1  UNL1        0.0622
     25 C          58.9567   91.6420    4.4621 C.ar    1  UNL1        0.0154
     26 C          58.8143   90.9049    5.7607 C.ar    1  UNL1        0.0018
     27 C          59.8834   89.1515   11.5495 C.3     1  UNL1        0.0594
     28 C          59.8094   89.0080   10.0582 C.ar    1  UNL1        0.0882
     29 N          59.4874   87.7493    9.3086 N.ar    1  UNL1       -0.2470
     30 C          59.5234   88.0613    7.8418 C.ar    1  UNL1        0.0655
     31 C          59.2612   87.0919    6.7275 C.3     1  UNL1        0.0526
     32 C          59.8675   89.5129    7.6849 C.ar    1  UNL1        0.0441
     33 S          60.0443   90.0979    9.0548 S.2     1  UNL1       -0.0711
     34 C          64.3807   95.2796   -2.3489 C.3     1  UNL1        0.1183
     35 C          64.5974   94.6160   -3.6765 C.ar    1  UNL1        0.0712
     36 N          64.2623   93.1646   -3.8531 N.ar    1  UNL1       -0.2471
     37 C          64.4790   92.5010   -5.1808 C.ar    1  UNL1        0.0985
     38 C          65.0307   93.2888   -6.3319 C.ar    1  UNL1        0.0203
     39 C          65.3658   94.7402   -6.1553 C.ar    1  UNL1       -0.0015
     40 C          65.1491   95.4038   -4.8276 C.ar    1  UNL1       -0.0069
     41 C          65.4841   96.8552   -4.6510 C.3     1  UNL1        0.0323
@<TRIPOS>BOND
     1    27    28    1
     2    28    29   ar
     3    29    30   ar
     4    30    31    1
     5    30    32   ar
     6    32    21    1
     7    21    22   ar
     8    22    23   ar
     9    23    24   ar
    10    24     1    1
    11     1     2   am
    12     2     3    2
    13     2     4   am
    14     4    13    1
    15    13    14   ar
    16    14    15   ar
    17    15    16    1
    18    15    17   ar
    19    17    18   ar
    20    18    19   ar
    21     4     5    1
    22     5     6    1
    23     6     7    1
    24     7     8    1
    25     8    34    1
    26    34    35    1
    27    35    36   ar
    28    36    37   ar
    29    37    38   ar
    30    38    39   ar
    31    39    40   ar
    32    40    41    1
    33     8     9    1
    34     9    10    1
    35     5    11    1
    36    11    12    2
    37    24    25   ar
    38    25    26   ar
    39    32    33   ar
    40    33    28   ar
    41    26    21   ar
    42    11     1   am
    43    19    13   ar
    44    10     5    1
    45    40    35   ar
    46    16    20    1
@<TRIPOS>MOLECULE
*****
 41 46 0 0 0
SMALL
GASTEIGER

@<TRIPOS>ATOM
      1 N          60.7783   92.5810    2.2399 N.am    1  UNL1       -0.1907
      2 C          62.0468   93.2098    1.7441 C.2     1  UNL1        0.3219
      3 O          63.3645   93.2197    2.4606 O.2     1  UNL1       -0.2512
      4 N          61.7661   93.8268    0.4060 N.am    1  UNL1       -0.2222
      5 C          60.3241   93.5795    0.0748 C.3     1  UNL1        0.1391
      6 C          58.8720   93.2572   -0.1188 C.3     1  UNL1        0.0449
      7 C          58.1647   93.7017   -1.3646 C.3     1  UNL1        0.0746
      8 N          58.9096   94.4685   -2.4169 N.3     1  UNL1       -0.2676
      9 C          60.3617   94.7908   -2.2233 C.3     1  UNL1        0.0746
     10 C          61.0689   94.3462   -0.9775 C.3     1  UNL1        0.0449
     11 C          59.7136   92.8095    1.2082 C.2     1  UNL1        0.2529
     12 O          58.2888   92.3489    1.2947 O.2     1  UNL1       -0.2724
     13 C          62.7538   94.5622   -0.4505 C.ar    1  UNL1        0.1453
     14 C          63.2761   93.9285   -1.7057 C.ar    1  UNL1        0.0922
     15 C          64.2638   94.6640   -2.5622 C.ar    1  UNL1        0.2259
     16 O          64.7861   94.0303   -3.8174 O.3     1  UNL1       -0.4919
     17 N          64.7293   96.0331   -2.1635 N.ar    1  UNL1       -0.1894
     18 C          64.2070   96.6667   -0.9082 C.ar    1  UNL1        0.2027
     19 N          63.2192   95.9313   -0.0517 N.ar    1  UNL1       -0.2084
     20 H          64.4954   93.1751   -4.0665 H       1  UNL1        0.2938
     21 C          60.2583   90.3934    6.1378 C.ar    1  UNL1        0.0073
     22 C          61.5156   90.2149    5.3395 C.ar    1  UNL1        0.0018
     23 C          61.6890   90.9441    4.0402 C.ar    1  UNL1        0.0154
     24 C          60.6050   91.8518    3.5392 C.ar    1  UNL1        0.0622
     25 C          59.3477   92.0303    4.3375 C.ar    1  UNL1        0.0154
     26 C          59.1744   91.3012    5.6368 C.ar    1  UNL1        0.0018
     27 C          60.3746   89.1972   11.2794 C.3     1  UNL1        0.0594
     28 C          60.1384   89.1144    9.8005 C.ar    1  UNL1        0.0882
     29 N          59.4979   87.9698    9.0727 N.ar    1  UNL1       -0.2470
     30 C          59.4649   88.3096    7.6120 C.ar    1  UNL1        0.0655
     31 C          58.9093   87.4464    6.5183 C.3     1  UNL1        0.0526
     32 C          60.0849   89.6643    7.4371 C.ar    1  UNL1        0.0441
     33 S          60.5012   90.1616    8.7896 S.2     1  UNL1       -0.0711
     34 C          58.2022   94.9130   -3.6628 C.3     1  UNL1        0.1183
     35 C          58.9765   95.1242   -4.9300 C.ar    1  UNL1        0.0712
     36 N          60.2662   94.3911   -5.1520 N.ar    1  UNL1       -0.2471
     37 C          61.0404   94.6024   -6.4193 C.ar    1  UNL1        0.0985
     38 C          60.5250   95.5467   -7.4645 C.ar    1  UNL1        0.0203
     39 C          59.2353   96.2798   -7.2425 C.ar    1  UNL1       -0.0015
     40 C          58.4611   96.0686   -5.9753 C.ar    1  UNL1       -0.0069
     41 C          57.1714   96.8017   -5.7533 C.3     1  UNL1        0.0323
@<TRIPOS>BOND
     1    27    28    1
     2    28    29   ar
     3    29    30   ar
     4    30    31    1
     5    30    32   ar
     6    32    21    1
     7    21    22   ar
     8    22    23   ar
     9    23    24   ar
    10    24     1    1
    11     1     2   am
    12     2     3    2
    13     2     4   am
    14     4    13    1
    15    13    14   ar
    16    14    15   ar
    17    15    16    1
    18    15    17   ar
    19    17    18   ar
    20    18    19   ar
    21     4     5    1
    22     5     6    1
    23     6     7    1
    24     7     8    1
    25     8    34    1
    26    34    35    1
    27    35    36   ar
    28    36    37   ar
    29    37    38   ar
    30    38    39   ar
    31    39    40   ar
    32    40    41    1
    33     8     9    1
    34     9    10    1
    35     5    11    1
    36    11    12    2
    37    24    25   ar
    38    25    26   ar
    39    32    33   ar
    40    33    28   ar
    41    26    21   ar
    42    11     1   am
    43    19    13   ar
    44    10     5    1
    45    40    35   ar
    46    16    20    1
