@<TRIPOS>MOLECULE
*****
 25 28 0 0 0
SMALL
GASTEIGER

@<TRIPOS>ATOM
      1 C          64.1048   89.3417   14.3533 C.ar    1  UNL1        0.0534
      2 C          63.4089   89.4537   13.0293 C.ar    1  UNL1        0.0045
      3 C          63.7271   90.5947   12.1090 C.ar    1  UNL1        0.0001
      4 C          64.7411   91.6236   12.5128 C.ar    1  UNL1       -0.0002
      5 C          65.0593   92.7646   11.5925 C.ar    1  UNL1       -0.0017
      6 C          66.0733   93.7935   11.9963 C.ar    1  UNL1        0.0071
      7 C          66.7692   93.6815   13.3204 C.ar    1  UNL1       -0.0017
      8 C          66.4510   92.5405   14.2407 C.ar    1  UNL1       -0.0002
      9 C          65.4369   91.5116   13.8368 C.ar    1  UNL1        0.0001
     10 C          65.1188   90.3706   14.7571 C.ar    1  UNL1        0.0045
     11 C          66.3915   94.9345   11.0760 C.3     1  UNL1        0.1432
     12 O          65.5936   95.7418   12.0566 O.3     1  UNL1       -0.3770
     13 C          66.5429   96.2442   10.3607 C.3     1  UNL1        0.0614
     14 C          67.3677   96.0079    9.1304 C.3     1  UNL1        0.1105
     15 N          67.7262   94.5520    9.0853 N.ar    1  UNL1       -0.3101
     16 C          68.4575   93.5061    8.2970 C.ar    1  UNL1        0.1784
     17 N          68.3062   92.1964    9.0123 N.ar    1  UNL1       -0.2226
     18 C          67.4812   92.4328   10.2426 C.ar    1  UNL1        0.1160
     19 C          67.1228   93.8886   10.2877 C.ar    1  UNL1        0.0859
     20 H          65.5656   96.6670   11.7666 H       1  UNL1        0.2112
     21 C          63.8628   85.6618   15.8195 C.3     1  UNL1        0.1109
     22 N          64.1810   86.8028   14.8993 N.am    1  UNL1       -0.2992
     23 C          63.7866   88.2007   15.2736 C.2     1  UNL1        0.2459
     24 O          63.0740   88.4576   16.5683 O.2     1  UNL1       -0.2701
     25 H          64.6487   86.6341   14.0495 H       1  UNL1        0.1498
@<TRIPOS>BOND
     1    21    22    1
     2    22    23   am
     3    23    24    2
     4    23     1    1
     5     1     2   ar
     6     2     3   ar
     7     3     4   ar
     8     4     5   ar
     9     5     6   ar
    10     6    11    1
    11    11    12    1
    12    11    13    1
    13    13    14    1
    14    14    15    1
    15    15    16   ar
    16    16    17   ar
    17    17    18   ar
    18    18    19   ar
    19     6     7   ar
    20     7     8   ar
    21     8     9   ar
    22     9    10   ar
    23    10     1   ar
    24     9     4   ar
    25    19    11    1
    26    19    15   ar
    27    22    25    1
    28    12    20    1
@<TRIPOS>MOLECULE
*****
 25 28 0 0 0
SMALL
GASTEIGER

@<TRIPOS>ATOM
      1 C          65.4234   92.1271   12.9797 C.ar    1  UNL1        0.0534
      2 C          65.5521   92.5664   11.5513 C.ar    1  UNL1        0.0045
      3 C          64.5902   92.0553   10.5200 C.ar    1  UNL1        0.0001
      4 C          63.4998   91.1049   10.9171 C.ar    1  UNL1       -0.0002
      5 C          62.5379   90.5938    9.8857 C.ar    1  UNL1       -0.0017
      6 C          61.4475   89.6435   10.2828 C.ar    1  UNL1        0.0071
      7 C          61.3189   89.2042   11.7113 C.ar    1  UNL1       -0.0017
      8 C          62.2807   89.7153   12.7426 C.ar    1  UNL1       -0.0002
      9 C          63.3712   90.6657   12.3455 C.ar    1  UNL1        0.0001
     10 C          64.3330   91.1767   13.3768 C.ar    1  UNL1        0.0045
     11 C          60.4857   89.1324    9.2514 C.3     1  UNL1        0.1432
     12 O          59.8588   90.4877    9.3925 O.3     1  UNL1       -0.3770
     13 C          59.3928   88.9046    8.2496 C.3     1  UNL1        0.0614
     14 C          59.5454   87.5154    7.7050 C.3     1  UNL1        0.1105
     15 N          60.7326   86.8845    8.3702 N.ar    1  UNL1       -0.3101
     16 C          61.5606   85.6360    8.4448 C.ar    1  UNL1        0.1784
     17 N          62.6535   85.8637    9.4466 N.ar    1  UNL1       -0.2226
     18 C          62.5009   87.2530    9.9912 C.ar    1  UNL1        0.1160
     19 C          61.3137   87.8839    9.3260 C.ar    1  UNL1        0.0859
     20 H          59.0938   90.5534    8.7997 H       1  UNL1        0.2112
     21 C          68.1960   92.1866   15.8186 C.3     1  UNL1        0.1109
     22 N          67.2342   91.6755   14.7873 N.am    1  UNL1       -0.2992
     23 C          66.3853   92.6382   14.0111 C.2     1  UNL1        0.2459
     24 O          66.4982   94.1120   14.2663 O.2     1  UNL1       -0.2701
     25 H          67.1601   90.7082   14.6198 H       1  UNL1        0.1498
@<TRIPOS>BOND
     1    21    22    1
     2    22    23   am
     3    23    24    2
     4    23     1    1
     5     1     2   ar
     6     2     3   ar
     7     3     4   ar
     8     4     5   ar
     9     5     6   ar
    10     6    11    1
    11    11    12    1
    12    11    13    1
    13    13    14    1
    14    14    15    1
    15    15    16   ar
    16    16    17   ar
    17    17    18   ar
    18    18    19   ar
    19     6     7   ar
    20     7     8   ar
    21     8     9   ar
    22     9    10   ar
    23    10     1   ar
    24     9     4   ar
    25    19    11    1
    26    19    15   ar
    27    22    25    1
    28    12    20    1
@<TRIPOS>MOLECULE
*****
 25 28 0 0 0
SMALL
GASTEIGER

@<TRIPOS>ATOM
      1 C          63.7956   90.0134   14.8104 C.ar    1  UNL1        0.0534
      2 C          62.9593   90.1093   13.5688 C.ar    1  UNL1        0.0045
      3 C          63.5120   90.7713   12.3415 C.ar    1  UNL1        0.0001
      4 C          64.9010   91.3374   12.3558 C.ar    1  UNL1       -0.0002
      5 C          65.4537   91.9994   11.1285 C.ar    1  UNL1       -0.0017
      6 C          66.8427   92.5656   11.1427 C.ar    1  UNL1        0.0071
      7 C          67.6790   92.4697   12.3843 C.ar    1  UNL1       -0.0017
      8 C          67.1263   91.8077   13.6115 C.ar    1  UNL1       -0.0002
      9 C          65.7373   91.2415   13.5973 C.ar    1  UNL1        0.0001
     10 C          65.1846   90.5795   14.8246 C.ar    1  UNL1        0.0045
     11 C          67.3954   93.2276    9.9154 C.3     1  UNL1        0.1432
     12 O          67.8700   91.8459    9.5755 O.3     1  UNL1       -0.3770
     13 C          68.0473   93.6008    8.6171 C.3     1  UNL1        0.0614
     14 C          67.8600   95.0747    8.4111 C.3     1  UNL1        0.1105
     15 N          67.0924   95.6125    9.5822 N.ar    1  UNL1       -0.3101
     16 C          66.5022   96.8558   10.1788 C.ar    1  UNL1        0.1784
     17 N          65.8503   96.4827   11.4771 N.ar    1  UNL1       -0.2226
     18 C          66.0376   95.0087   11.6830 C.ar    1  UNL1        0.1160
     19 C          66.8052   94.4709   10.5119 C.ar    1  UNL1        0.0859
     20 H          68.3415   91.8654    8.7280 H       1  UNL1        0.2112
     21 C          62.7475   87.1968   17.4023 C.3     1  UNL1        0.1109
     22 N          63.3002   87.8588   16.1750 N.am    1  UNL1       -0.2992
     23 C          63.2429   89.3514   16.0377 C.2     1  UNL1        0.2459
     24 O          62.6329   90.1820   17.1276 O.2     1  UNL1       -0.2701
     25 H          63.7006   87.3137   15.4597 H       1  UNL1        0.1498
@<TRIPOS>BOND
     1    21    22    1
     2    22    23   am
     3    23    24    2
     4    23     1    1
     5     1     2   ar
     6     2     3   ar
     7     3     4   ar
     8     4     5   ar
     9     5     6   ar
    10     6    11    1
    11    11    12    1
    12    11    13    1
    13    13    14    1
    14    14    15    1
    15    15    16   ar
    16    16    17   ar
    17    17    18   ar
    18    18    19   ar
    19     6     7   ar
    20     7     8   ar
    21     8     9   ar
    22     9    10   ar
    23    10     1   ar
    24     9     4   ar
    25    19    11    1
    26    19    15   ar
    27    22    25    1
    28    12    20    1
@<TRIPOS>MOLECULE
*****
 25 28 0 0 0
SMALL
GASTEIGER

@<TRIPOS>ATOM
      1 C          64.1353   89.2466   13.5884 C.ar    1  UNL1        0.0534
      2 C          63.2825   88.8703   12.4133 C.ar    1  UNL1        0.0045
      3 C          62.8456   87.4473   12.2287 C.ar    1  UNL1        0.0001
      4 C          63.2615   86.4005   13.2192 C.ar    1  UNL1       -0.0002
      5 C          62.8246   84.9775   13.0346 C.ar    1  UNL1       -0.0017
      6 C          63.2405   83.9308   14.0252 C.ar    1  UNL1        0.0071
      7 C          64.0934   84.3070   15.2004 C.ar    1  UNL1       -0.0017
      8 C          64.5303   85.7301   15.3850 C.ar    1  UNL1       -0.0002
      9 C          64.1144   86.7768   14.3944 C.ar    1  UNL1        0.0001
     10 C          64.5513   88.1999   14.5790 C.ar    1  UNL1        0.0045
     11 C          62.8036   82.5077   13.8406 C.3     1  UNL1        0.1432
     12 O          62.2700   82.6560   15.2345 O.3     1  UNL1       -0.3770
     13 C          62.2552   81.1157   13.9474 C.3     1  UNL1        0.0614
     14 C          62.5412   80.4046   12.6581 C.3     1  UNL1        0.1105
     15 N          63.2664   81.3571   11.7544 N.ar    1  UNL1       -0.3101
     16 C          63.8915   81.5063   10.3990 C.ar    1  UNL1        0.1784
     17 N          64.4400   82.8983   10.2921 N.ar    1  UNL1       -0.2226
     18 C          64.1539   83.6094   11.5815 C.ar    1  UNL1        0.1160
     19 C          63.4286   82.6569   12.4852 C.ar    1  UNL1        0.0859
     20 H          61.8529   81.8251   15.5112 H       1  UNL1        0.2112
     21 C          66.1301   92.4168   14.9001 C.3     1  UNL1        0.1109
     22 N          65.6932   90.9938   14.7155 N.am    1  UNL1       -0.2992
     23 C          64.5723   90.6697   13.7730 C.2     1  UNL1        0.2459
     24 O          63.8882   91.7685   13.0151 O.2     1  UNL1       -0.2701
     25 H          66.1421   90.2726   15.2130 H       1  UNL1        0.1498
@<TRIPOS>BOND
     1    21    22    1
     2    22    23   am
     3    23    24    2
     4    23     1    1
     5     1     2   ar
     6     2     3   ar
     7     3     4   ar
     8     4     5   ar
     9     5     6   ar
    10     6    11    1
    11    11    12    1
    12    11    13    1
    13    13    14    1
    14    14    15    1
    15    15    16   ar
    16    16    17   ar
    17    17    18   ar
    18    18    19   ar
    19     6     7   ar
    20     7     8   ar
    21     8     9   ar
    22     9    10   ar
    23    10     1   ar
    24     9     4   ar
    25    19    11    1
    26    19    15   ar
    27    22    25    1
    28    12    20    1
@<TRIPOS>MOLECULE
*****
 25 28 0 0 0
SMALL
GASTEIGER

@<TRIPOS>ATOM
      1 C          65.4648   91.7738   14.5806 C.ar    1  UNL1        0.0534
      2 C          64.4966   90.8811   15.2987 C.ar    1  UNL1        0.0045
      3 C          63.3974   90.2009   14.5378 C.ar    1  UNL1        0.0001
      4 C          63.2663   90.4133   13.0587 C.ar    1  UNL1       -0.0002
      5 C          62.1671   89.7331   12.2978 C.ar    1  UNL1       -0.0017
      6 C          62.0360   89.9456   10.8188 C.ar    1  UNL1        0.0071
      7 C          63.0042   90.8383   10.1005 C.ar    1  UNL1       -0.0017
      8 C          64.1035   91.5185   10.8615 C.ar    1  UNL1       -0.0002
      9 C          64.2345   91.3060   12.3406 C.ar    1  UNL1        0.0001
     10 C          65.3337   91.9862   13.1015 C.ar    1  UNL1        0.0045
     11 C          60.9368   89.2654   10.0579 C.3     1  UNL1        0.1432
     12 O          60.5096   90.6658    9.7321 O.3     1  UNL1       -0.3770
     13 C          59.7483   88.8779    9.2289 C.3     1  UNL1        0.0614
     14 C          59.6707   87.3802    9.2013 C.3     1  UNL1        0.1105
     15 N          60.8112   86.8420   10.0133 N.ar    1  UNL1       -0.3101
     16 C          61.4682   85.5837   10.4982 C.ar    1  UNL1        0.1784
     17 N          62.6568   85.9711   11.3272 N.ar    1  UNL1       -0.2226
     18 C          62.7343   87.4688   11.3547 C.ar    1  UNL1        0.1160
     19 C          61.5937   88.0071   10.5427 C.ar    1  UNL1        0.0859
     20 H          59.7163   90.6405    9.1745 H       1  UNL1        0.2112
     21 C          68.9607   93.4537   15.4209 C.3     1  UNL1        0.1109
     22 N          67.8615   92.7735   14.6600 N.am    1  UNL1       -0.2992
     23 C          66.5640   92.4540   15.3415 C.2     1  UNL1        0.2459
     24 O          66.3658   92.8146   16.7839 O.2     1  UNL1       -0.2701
     25 H          67.9915   92.5369   13.7132 H       1  UNL1        0.1498
@<TRIPOS>BOND
     1    21    22    1
     2    22    23   am
     3    23    24    2
     4    23     1    1
     5     1     2   ar
     6     2     3   ar
     7     3     4   ar
     8     4     5   ar
     9     5     6   ar
    10     6    11    1
    11    11    12    1
    12    11    13    1
    13    13    14    1
    14    14    15    1
    15    15    16   ar
    16    16    17   ar
    17    17    18   ar
    18    18    19   ar
    19     6     7   ar
    20     7     8   ar
    21     8     9   ar
    22     9    10   ar
    23    10     1   ar
    24     9     4   ar
    25    19    11    1
    26    19    15   ar
    27    22    25    1
    28    12    20    1
@<TRIPOS>MOLECULE
*****
 25 28 0 0 0
SMALL
GASTEIGER

@<TRIPOS>ATOM
      1 C          62.1664   88.9333   10.4441 C.ar    1  UNL1        0.0534
      2 C          62.3849   88.0446   11.6325 C.ar    1  UNL1        0.0045
      3 C          63.2301   88.5179   12.7778 C.ar    1  UNL1        0.0001
      4 C          63.8568   89.8800   12.7346 C.ar    1  UNL1       -0.0002
      5 C          64.7021   90.3533   13.8798 C.ar    1  UNL1       -0.0017
      6 C          65.3288   91.7154   13.8366 C.ar    1  UNL1        0.0071
      7 C          65.1103   92.6042   12.6482 C.ar    1  UNL1       -0.0017
      8 C          64.2651   92.1309   11.5030 C.ar    1  UNL1       -0.0002
      9 C          63.6384   90.7687   11.5462 C.ar    1  UNL1        0.0001
     10 C          62.7931   90.2954   10.4010 C.ar    1  UNL1        0.0045
     11 C          66.1740   92.1887   14.9819 C.3     1  UNL1        0.1432
     12 O          64.8632   92.2833   15.7048 O.3     1  UNL1       -0.3770
     13 C          66.7453   92.6818   16.2782 C.3     1  UNL1        0.0614
     14 C          68.2324   92.7930   16.1170 C.3     1  UNL1        0.1105
     15 N          68.5803   92.3686   14.7210 N.ar    1  UNL1       -0.3101
     16 C          69.7145   92.1751   13.7586 C.ar    1  UNL1        0.1784
     17 N          69.1433   91.6820   12.4622 N.ar    1  UNL1       -0.2226
     18 C          67.6561   91.5708   12.6234 C.ar    1  UNL1        0.1160
     19 C          67.3082   91.9951   14.0194 C.ar    1  UNL1        0.0859
     20 H          65.0148   92.5999   16.6091 H       1  UNL1        0.2112
     21 C          59.5523   88.9422    7.4581 C.3     1  UNL1        0.1109
     22 N          60.3975   89.4155    8.6033 N.am    1  UNL1       -0.2992
     23 C          61.3212   88.4600    9.2989 C.2     1  UNL1        0.2459
     24 O          61.3996   87.0312    8.8492 O.2     1  UNL1       -0.2701
     25 H          60.3460   90.3533    8.8985 H       1  UNL1        0.1498
@<TRIPOS>BOND
     1    21    22    1
     2    22    23   am
     3    23    24    2
     4    23     1    1
     5     1     2   ar
     6     2     3   ar
     7     3     4   ar
     8     4     5   ar
     9     5     6   ar
    10     6    11    1
    11    11    12    1
    12    11    13    1
    13    13    14    1
    14    14    15    1
    15    15    16   ar
    16    16    17   ar
    17    17    18   ar
    18    18    19   ar
    19     6     7   ar
    20     7     8   ar
    21     8     9   ar
    22     9    10   ar
    23    10     1   ar
    24     9     4   ar
    25    19    11    1
    26    19    15   ar
    27    22    25    1
    28    12    20    1
@<TRIPOS>MOLECULE
*****
 25 28 0 0 0
SMALL
GASTEIGER

@<TRIPOS>ATOM
      1 C          61.7969   88.3313   10.1508 C.ar    1  UNL1        0.0534
      2 C          61.6458   89.8160   10.0003 C.ar    1  UNL1        0.0045
      3 C          62.2311   90.7375   11.0290 C.ar    1  UNL1        0.0001
      4 C          62.9675   90.1743   12.2082 C.ar    1  UNL1       -0.0002
      5 C          63.5527   91.0959   13.2369 C.ar    1  UNL1       -0.0017
      6 C          64.2891   90.5327   14.4161 C.ar    1  UNL1        0.0071
      7 C          64.4401   89.0478   14.5667 C.ar    1  UNL1       -0.0017
      8 C          63.8548   88.1263   13.5380 C.ar    1  UNL1       -0.0002
      9 C          63.1185   88.6896   12.3587 C.ar    1  UNL1        0.0001
     10 C          62.5332   87.7681   11.3300 C.ar    1  UNL1        0.0045
     11 C          64.8744   91.4542   15.4448 C.3     1  UNL1        0.1432
     12 O          63.6752   91.0575   16.2538 O.3     1  UNL1       -0.3770
     13 C          65.2090   92.2928   16.6426 C.3     1  UNL1        0.0614
     14 C          66.4926   93.0151   16.3588 C.3     1  UNL1        0.1105
     15 N          66.9513   92.6230   14.9856 N.ar    1  UNL1       -0.3101
     16 C          68.0281   92.8270   13.9614 C.ar    1  UNL1        0.1784
     17 N          67.6935   91.9885   12.7636 N.ar    1  UNL1       -0.2226
     18 C          66.4099   91.2661   13.0474 C.ar    1  UNL1        0.1160
     19 C          65.9512   91.6583   14.4207 C.ar    1  UNL1        0.0859
     20 H          63.6987   91.5115   17.1107 H       1  UNL1        0.2112
     21 C          59.2317   86.7152    7.5899 C.3     1  UNL1        0.1109
     22 N          59.8170   87.6367    8.6186 N.am    1  UNL1       -0.2992
     23 C          61.2116   87.4097    9.1221 C.2     1  UNL1        0.2459
     24 O          62.0209   86.2612    8.5969 O.2     1  UNL1       -0.2701
     25 H          59.2858   88.3905    8.9634 H       1  UNL1        0.1498
@<TRIPOS>BOND
     1    21    22    1
     2    22    23   am
     3    23    24    2
     4    23     1    1
     5     1     2   ar
     6     2     3   ar
     7     3     4   ar
     8     4     5   ar
     9     5     6   ar
    10     6    11    1
    11    11    12    1
    12    11    13    1
    13    13    14    1
    14    14    15    1
    15    15    16   ar
    16    16    17   ar
    17    17    18   ar
    18    18    19   ar
    19     6     7   ar
    20     7     8   ar
    21     8     9   ar
    22     9    10   ar
    23    10     1   ar
    24     9     4   ar
    25    19    11    1
    26    19    15   ar
    27    22    25    1
    28    12    20    1
@<TRIPOS>MOLECULE
*****
 25 28 0 0 0
SMALL
GASTEIGER

@<TRIPOS>ATOM
      1 C          61.6971   86.5573    9.2559 C.ar    1  UNL1        0.0534
      2 C          62.2672   85.7197   10.3620 C.ar    1  UNL1        0.0045
      3 C          62.8117   86.3765   11.5958 C.ar    1  UNL1        0.0001
      4 C          62.7861   87.8708   11.7235 C.ar    1  UNL1       -0.0002
      5 C          63.3306   88.5275   12.9572 C.ar    1  UNL1       -0.0017
      6 C          63.3050   90.0218   13.0849 C.ar    1  UNL1        0.0071
      7 C          62.7349   90.8595   11.9788 C.ar    1  UNL1       -0.0017
      8 C          62.1904   90.2027   10.7451 C.ar    1  UNL1       -0.0002
      9 C          62.2160   88.7083   10.6174 C.ar    1  UNL1        0.0001
     10 C          61.6715   88.0516    9.3836 C.ar    1  UNL1        0.0045
     11 C          63.8495   90.6786   14.3187 C.3     1  UNL1        0.1432
     12 O          62.8270   89.8396   15.0260 O.3     1  UNL1       -0.3770
     13 C          64.1803   91.1600   15.7003 C.3     1  UNL1        0.0614
     14 C          65.2935   92.1592   15.5890 C.3     1  UNL1        0.1105
     15 N          65.6507   92.2953   14.1385 N.ar    1  UNL1       -0.3101
     16 C          66.5595   92.9970   13.1733 C.ar    1  UNL1        0.1784
     17 N          66.2289   92.5157   11.7916 N.ar    1  UNL1       -0.2226
     18 C          65.1156   91.5165   11.9030 C.ar    1  UNL1        0.1160
     19 C          64.7584   91.3803   13.3535 C.ar    1  UNL1        0.0859
     20 H          62.8748   90.0076   15.9801 H       1  UNL1        0.2112
     21 C          61.4972   84.3799    5.9440 C.3     1  UNL1        0.1109
     22 N          62.0418   85.0366    7.1778 N.am    1  UNL1       -0.2992
     23 C          61.1526   85.9005    8.0222 C.2     1  UNL1        0.2459
     24 O          59.7190   86.1077    7.6328 O.2     1  UNL1       -0.2701
     25 H          62.9827   84.9006    7.4334 H       1  UNL1        0.1498
@<TRIPOS>BOND
     1    21    22    1
     2    22    23   am
     3    23    24    2
     4    23     1    1
     5     1     2   ar
     6     2     3   ar
     7     3     4   ar
     8     4     5   ar
     9     5     6   ar
    10     6    11    1
    11    11    12    1
    12    11    13    1
    13    13    14    1
    14    14    15    1
    15    15    16   ar
    16    16    17   ar
    17    17    18   ar
    18    18    19   ar
    19     6     7   ar
    20     7     8   ar
    21     8     9   ar
    22     9    10   ar
    23    10     1   ar
    24     9     4   ar
    25    19    11    1
    26    19    15   ar
    27    22    25    1
    28    12    20    1
@<TRIPOS>MOLECULE
*****
 25 28 0 0 0
SMALL
GASTEIGER

@<TRIPOS>ATOM
      1 C          64.1810   88.1819   14.4697 C.ar    1  UNL1        0.0534
      2 C          64.9271   87.1052   15.2003 C.ar    1  UNL1        0.0045
      3 C          64.8964   85.6943   14.6922 C.ar    1  UNL1        0.0001
      4 C          64.1195   85.3600   13.4534 C.ar    1  UNL1       -0.0002
      5 C          64.0888   83.9490   12.9453 C.ar    1  UNL1       -0.0017
      6 C          63.3119   83.6147   11.7065 C.ar    1  UNL1        0.0071
      7 C          62.5657   84.6914   10.9758 C.ar    1  UNL1       -0.0017
      8 C          62.5964   86.1024   11.4839 C.ar    1  UNL1       -0.0002
      9 C          63.3733   86.4367   12.7228 C.ar    1  UNL1        0.0001
     10 C          63.4041   87.8476   13.2309 C.ar    1  UNL1        0.0045
     11 C          63.2812   82.2037   11.1984 C.3     1  UNL1        0.1432
     12 O          63.9172   82.7967    9.9763 O.3     1  UNL1       -0.3770
     13 C          63.3834   80.9167   10.4348 C.3     1  UNL1        0.0614
     14 C          62.8170   79.8233   11.2913 C.3     1  UNL1        0.1105
     15 N          62.3647   80.4345   12.5842 N.ar    1  UNL1       -0.3101
     16 C          61.7350   80.1365   13.9127 C.ar    1  UNL1        0.1784
     17 N          61.6327   81.4235   14.6764 N.ar    1  UNL1       -0.2226
     18 C          62.1992   82.5170   13.8198 C.ar    1  UNL1        0.1160
     19 C          62.6515   81.9057   12.5269 C.ar    1  UNL1        0.0859
     20 H          64.0763   82.0975    9.3230 H       1  UNL1        0.2112
     21 C          65.3186   91.9429   15.0275 C.3     1  UNL1        0.1109
     22 N          65.2878   90.5319   14.5194 N.am    1  UNL1       -0.2992
     23 C          64.2117   89.5929   14.9778 C.2     1  UNL1        0.2459
     24 O          63.1662   90.0649   15.9443 O.2     1  UNL1       -0.2701
     25 H          65.9740   90.2221   13.8850 H       1  UNL1        0.1498
@<TRIPOS>BOND
     1    21    22    1
     2    22    23   am
     3    23    24    2
     4    23     1    1
     5     1     2   ar
     6     2     3   ar
     7     3     4   ar
     8     4     5   ar
     9     5     6   ar
    10     6    11    1
    11    11    12    1
    12    11    13    1
    13    13    14    1
    14    14    15    1
    15    15    16   ar
    16    16    17   ar
    17    17    18   ar
    18    18    19   ar
    19     6     7   ar
    20     7     8   ar
    21     8     9   ar
    22     9    10   ar
    23    10     1   ar
    24     9     4   ar
    25    19    11    1
    26    19    15   ar
    27    22    25    1
    28    12    20    1
