@<TRIPOS>MOLECULE
*****
 25 26 0 0 0
SMALL
GASTEIGER

@<TRIPOS>ATOM
      1 N          65.9380   91.6074   13.1650 N.am    1  UNL1       -0.3024
      2 C          64.5407   91.0645   13.2161 C.2     1  UNL1        0.2466
      3 O          63.5053   91.5665   12.2538 O.2     1  UNL1       -0.2701
      4 H          66.6176   91.2779   13.7966 H       1  UNL1        0.1497
      5 C          64.1787   90.0195   14.2295 C.ar    1  UNL1        0.0639
      6 C          64.1737   88.5700   13.8432 C.ar    1  UNL1        0.0053
      7 C          63.8117   87.5250   14.8566 C.ar    1  UNL1        0.0041
      8 C          63.4546   87.9295   16.2562 C.ar    1  UNL1        0.0723
      9 C          63.4596   89.3789   16.6425 C.ar    1  UNL1        0.0154
     10 C          63.8216   90.4239   15.6291 C.ar    1  UNL1        0.0620
     11 CL         63.8266   91.8733   16.0153 Cl      1  UNL1       -0.0821
     12 C          63.0926   86.8845   17.2696 C.3     1  UNL1        0.4186
     13 F          62.7305   85.8395   18.2830 F       1  UNL1       -0.1659
     14 F          63.1275   85.8343   16.1992 F       1  UNL1       -0.1659
     15 F          63.0577   87.9347   18.3401 F       1  UNL1       -0.1659
     16 N          67.0241   94.7423   10.1249 N.3     1  UNL1       -0.2751
     17 C          67.3455   93.3008    9.8633 C.3     1  UNL1        0.0737
     18 C          66.9835   92.2558   10.8767 C.3     1  UNL1        0.0369
     19 C          66.3001   92.6524   12.1516 C.3     1  UNL1        0.0746
     20 C          65.9786   94.0940   12.4132 C.3     1  UNL1        0.0369
     21 C          66.3407   95.1389   11.3998 C.3     1  UNL1        0.0737
     22 C          67.4918   94.7270    8.0558 C.3     1  UNL1        0.0160
     23 C          67.3862   95.7873    9.1115 C.3     1  UNL1        0.0455
     24 C          67.2805   96.8477   10.1672 C.3     1  UNL1        0.0160
     25 C          67.7482   96.8323    8.0981 C.3     1  UNL1        0.0160
@<TRIPOS>BOND
     1    22    23    1
     2    23    24    1
     3    23    25    1
     4    23    16    1
     5    16    17    1
     6    17    18    1
     7    18    19    1
     8    19     1    1
     9     1     2   am
    10     2     3    2
    11     2     5    1
    12     5     6   ar
    13     6     7   ar
    14     7     8   ar
    15     8    12    1
    16    12    13    1
    17    12    14    1
    18    12    15    1
    19     8     9   ar
    20     9    10   ar
    21    10    11    1
    22    19    20    1
    23    20    21    1
    24    21    16    1
    25    10     5   ar
    26     1     4    1
@<TRIPOS>MOLECULE
*****
 25 26 0 0 0
SMALL
GASTEIGER

@<TRIPOS>ATOM
      1 N          63.3625   87.3409   13.2909 N.am    1  UNL1       -0.3024
      2 C          64.0174   86.1825   13.9831 C.2     1  UNL1        0.2466
      3 O          65.2806   86.3923   14.7644 O.2     1  UNL1       -0.2701
      4 H          62.5334   87.2031   12.7781 H       1  UNL1        0.1497
      5 C          63.4091   84.8142   13.8940 C.ar    1  UNL1        0.0639
      6 C          63.5354   84.0182   12.6289 C.ar    1  UNL1        0.0053
      7 C          62.9271   82.6500   12.5398 C.ar    1  UNL1        0.0041
      8 C          62.1926   82.0777   13.7159 C.ar    1  UNL1        0.0723
      9 C          62.0663   82.8737   14.9809 C.ar    1  UNL1        0.0154
     10 C          62.6746   84.2420   15.0700 C.ar    1  UNL1        0.0620
     11 CL         62.5483   85.0380   16.3351 Cl      1  UNL1       -0.0821
     12 C          61.5843   80.7095   13.6268 C.3     1  UNL1        0.4186
     13 F          60.9761   79.3412   13.5378 F       1  UNL1       -0.1659
     14 F          60.4444   81.1599   14.4915 F       1  UNL1       -0.1659
     15 F          62.7243   80.2590   12.7622 F       1  UNL1       -0.1659
     16 N          65.1872   91.4456   13.5581 N.3     1  UNL1       -0.2751
     17 C          65.4473   90.4375   14.6379 C.3     1  UNL1        0.0737
     18 C          64.8390   89.0692   14.5489 C.3     1  UNL1        0.0369
     19 C          63.9707   88.7091   13.3800 C.3     1  UNL1        0.0746
     20 C          63.7107   89.7172   12.3002 C.3     1  UNL1        0.0369
     21 C          64.3190   91.0855   12.3892 C.3     1  UNL1        0.0737
     22 C          66.0113   92.6221   15.1191 C.3     1  UNL1        0.0160
     23 C          65.7955   92.8138   13.6472 C.3     1  UNL1        0.0455
     24 C          65.5797   93.0056   12.1752 C.3     1  UNL1        0.0160
     25 C          66.4038   94.1821   13.7363 C.3     1  UNL1        0.0160
@<TRIPOS>BOND
     1    22    23    1
     2    23    24    1
     3    23    25    1
     4    23    16    1
     5    16    17    1
     6    17    18    1
     7    18    19    1
     8    19     1    1
     9     1     2   am
    10     2     3    2
    11     2     5    1
    12     5     6   ar
    13     6     7   ar
    14     7     8   ar
    15     8    12    1
    16    12    13    1
    17    12    14    1
    18    12    15    1
    19     8     9   ar
    20     9    10   ar
    21    10    11    1
    22    19    20    1
    23    20    21    1
    24    21    16    1
    25    10     5   ar
    26     1     4    1
@<TRIPOS>MOLECULE
*****
 25 26 0 0 0
SMALL
GASTEIGER

@<TRIPOS>ATOM
      1 N          63.3721   87.3370   13.2973 N.am    1  UNL1       -0.3024
      2 C          64.0268   86.1724   13.9793 C.2     1  UNL1        0.2466
      3 O          65.2927   86.3743   14.7584 O.2     1  UNL1       -0.2701
      4 H          62.5413   87.2045   12.7860 H       1  UNL1        0.1497
      5 C          63.4158   84.8060   13.8822 C.ar    1  UNL1        0.0639
      6 C          63.5526   84.0113   12.6173 C.ar    1  UNL1        0.0053
      7 C          62.9416   82.6449   12.5203 C.ar    1  UNL1        0.0041
      8 C          62.1936   82.0731   13.6881 C.ar    1  UNL1        0.0723
      9 C          62.0568   82.8678   14.9529 C.ar    1  UNL1        0.0154
     10 C          62.6679   84.2342   15.0500 C.ar    1  UNL1        0.0620
     11 CL         62.5311   85.0289   16.3148 Cl      1  UNL1       -0.0821
     12 C          61.5826   80.7066   13.5911 C.3     1  UNL1        0.4186
     13 F          60.9715   79.3402   13.4940 F       1  UNL1       -0.1659
     14 F          62.6941   80.2742   12.6814 F       1  UNL1       -0.1659
     15 F          60.4710   81.1391   14.5007 F       1  UNL1       -0.1659
     16 N          65.2053   91.4363   13.5884 N.3     1  UNL1       -0.2751
     17 C          64.3418   91.0826   12.4141 C.3     1  UNL1        0.0737
     18 C          63.7307   89.7161   12.3170 C.3     1  UNL1        0.0369
     19 C          63.9832   88.7034   13.3943 C.3     1  UNL1        0.0746
     20 C          64.8467   89.0571   14.5687 C.3     1  UNL1        0.0369
     21 C          65.4578   90.4236   14.6657 C.3     1  UNL1        0.0737
     22 C          65.6060   93.0014   12.2137 C.3     1  UNL1        0.0160
     23 C          65.8164   92.8028   13.6855 C.3     1  UNL1        0.0455
     24 C          66.0268   92.6041   15.1573 C.3     1  UNL1        0.0160
     25 C          66.4274   94.1692   13.7825 C.3     1  UNL1        0.0160
@<TRIPOS>BOND
     1    22    23    1
     2    23    24    1
     3    23    25    1
     4    23    16    1
     5    16    17    1
     6    17    18    1
     7    18    19    1
     8    19     1    1
     9     1     2   am
    10     2     3    2
    11     2     5    1
    12     5     6   ar
    13     6     7   ar
    14     7     8   ar
    15     8    12    1
    16    12    13    1
    17    12    14    1
    18    12    15    1
    19     8     9   ar
    20     9    10   ar
    21    10    11    1
    22    19    20    1
    23    20    21    1
    24    21    16    1
    25    10     5   ar
    26     1     4    1
@<TRIPOS>MOLECULE
*****
 25 26 0 0 0
SMALL
GASTEIGER

@<TRIPOS>ATOM
      1 N          63.2486   85.8687   12.8732 N.am    1  UNL1       -0.3024
      2 C          64.0620   84.6501   13.1945 C.2     1  UNL1        0.2466
      3 O          65.2262   84.7520   14.1350 O.2     1  UNL1       -0.2701
      4 H          62.4845   85.8019   12.2559 H       1  UNL1        0.1497
      5 C          63.7112   83.3296   12.5755 C.ar    1  UNL1        0.0639
      6 C          64.1221   83.0300   11.1643 C.ar    1  UNL1        0.0053
      7 C          63.7713   81.7095   10.5453 C.ar    1  UNL1        0.0041
      8 C          63.0097   80.6885   11.3376 C.ar    1  UNL1        0.0723
      9 C          62.5989   80.9881   12.7487 C.ar    1  UNL1        0.0154
     10 C          62.9497   82.3086   13.3677 C.ar    1  UNL1        0.0620
     11 CL         62.5388   82.6082   14.7789 Cl      1  UNL1       -0.0821
     12 C          62.6590   79.3680   10.7186 C.3     1  UNL1        0.4186
     13 F          62.3082   78.0474   10.0996 F       1  UNL1       -0.1659
     14 F          62.8634   79.9538    9.3529 F       1  UNL1       -0.1659
     15 F          62.4545   78.7821   12.0842 F       1  UNL1       -0.1659
     16 N          64.3008   89.8304   14.7301 N.3     1  UNL1       -0.2751
     17 C          64.3649   88.5766   15.5511 C.3     1  UNL1        0.0737
     18 C          64.0141   87.2561   14.9321 C.3     1  UNL1        0.0369
     19 C          63.5993   87.1893   13.4921 C.3     1  UNL1        0.0746
     20 C          63.5353   88.4430   12.6712 C.3     1  UNL1        0.0369
     21 C          63.8860   89.7636   13.2902 C.3     1  UNL1        0.0737
     22 C          63.6387   90.9134   16.4297 C.3     1  UNL1        0.0160
     23 C          64.6516   91.1509   15.3491 C.3     1  UNL1        0.0455
     24 C          65.6645   91.3884   14.2686 C.3     1  UNL1        0.0160
     25 C          65.0023   92.4714   15.9681 C.3     1  UNL1        0.0160
@<TRIPOS>BOND
     1    22    23    1
     2    23    24    1
     3    23    25    1
     4    23    16    1
     5    16    17    1
     6    17    18    1
     7    18    19    1
     8    19     1    1
     9     1     2   am
    10     2     3    2
    11     2     5    1
    12     5     6   ar
    13     6     7   ar
    14     7     8   ar
    15     8    12    1
    16    12    13    1
    17    12    14    1
    18    12    15    1
    19     8     9   ar
    20     9    10   ar
    21    10    11    1
    22    19    20    1
    23    20    21    1
    24    21    16    1
    25    10     5   ar
    26     1     4    1
@<TRIPOS>MOLECULE
*****
 25 26 0 0 0
SMALL
GASTEIGER

@<TRIPOS>ATOM
      1 N          63.5226   90.0817   12.2999 N.am    1  UNL1       -0.3024
      2 C          64.3974   91.2337   11.9031 C.2     1  UNL1        0.2466
      3 O          64.3325   91.7787   10.5071 O.2     1  UNL1       -0.2701
      4 H          63.5652   89.7239   13.2161 H       1  UNL1        0.1497
      5 C          65.3372   91.8407   12.9023 C.ar    1  UNL1        0.0639
      6 C          65.6578   91.1084   14.1716 C.ar    1  UNL1        0.0053
      7 C          66.5976   91.7154   15.1708 C.ar    1  UNL1        0.0041
      8 C          67.2168   93.0547   14.9006 C.ar    1  UNL1        0.0723
      9 C          66.8962   93.7869   13.6313 C.ar    1  UNL1        0.0154
     10 C          65.9564   93.1799   12.6322 C.ar    1  UNL1        0.0620
     11 CL         65.6359   93.9121   11.3629 Cl      1  UNL1       -0.0821
     12 C          68.1566   93.6617   15.8998 C.3     1  UNL1        0.4186
     13 F          69.0964   94.2688   16.8989 F       1  UNL1       -0.1659
     14 F          68.0965   94.9671   15.1633 F       1  UNL1       -0.1659
     15 F          68.2167   92.3564   16.6362 F       1  UNL1       -0.1659
     16 N          60.7032   88.2606    9.3024 N.3     1  UNL1       -0.2751
     17 C          60.6322   89.7283    9.6035 C.3     1  UNL1        0.0737
     18 C          61.5720   90.3353   10.6027 C.3     1  UNL1        0.0369
     19 C          62.5828   89.4746   11.3008 C.3     1  UNL1        0.0746
     20 C          62.6538   88.0069   10.9997 C.3     1  UNL1        0.0369
     21 C          61.7140   87.3999   10.0005 C.3     1  UNL1        0.0737
     22 C          59.4239   89.0220    7.7913 C.3     1  UNL1        0.0160
     23 C          59.7634   87.6536    8.3033 C.3     1  UNL1        0.0455
     24 C          60.1029   86.2852    8.8153 C.3     1  UNL1        0.0160
     25 C          58.8236   87.0466    7.3041 C.3     1  UNL1        0.0160
@<TRIPOS>BOND
     1    22    23    1
     2    23    24    1
     3    23    25    1
     4    23    16    1
     5    16    17    1
     6    17    18    1
     7    18    19    1
     8    19     1    1
     9     1     2   am
    10     2     3    2
    11     2     5    1
    12     5     6   ar
    13     6     7   ar
    14     7     8   ar
    15     8    12    1
    16    12    13    1
    17    12    14    1
    18    12    15    1
    19     8     9   ar
    20     9    10   ar
    21    10    11    1
    22    19    20    1
    23    20    21    1
    24    21    16    1
    25    10     5   ar
    26     1     4    1
@<TRIPOS>MOLECULE
*****
 25 26 0 0 0
SMALL
GASTEIGER

@<TRIPOS>ATOM
      1 N          63.6657   90.7971   11.5431 N.am    1  UNL1       -0.3024
      2 C          64.1808   90.2891   12.8570 C.2     1  UNL1        0.2466
      3 O          63.6967   88.9752   13.3951 O.2     1  UNL1       -0.2701
      4 H          63.9834   91.6595   11.1899 H       1  UNL1        0.1497
      5 C          65.1800   91.0950   13.6330 C.ar    1  UNL1        0.0639
      6 C          66.4182   91.6060   12.9578 C.ar    1  UNL1        0.0053
      7 C          67.4174   92.4118   13.7337 C.ar    1  UNL1        0.0041
      8 C          67.1785   92.7067   15.1850 C.ar    1  UNL1        0.0723
      9 C          65.9403   92.1958   15.8601 C.ar    1  UNL1        0.0154
     10 C          64.9411   91.3899   15.0842 C.ar    1  UNL1        0.0620
     11 CL         63.7030   90.8790   15.7593 Cl      1  UNL1       -0.0821
     12 C          68.1777   93.5126   15.9610 C.3     1  UNL1        0.4186
     13 F          69.1769   94.3184   16.7369 F       1  UNL1       -0.1659
     14 F          67.7708   94.7435   15.2065 F       1  UNL1       -0.1659
     15 F          68.5846   92.2816   16.7154 F       1  UNL1       -0.1659
     16 N          60.6680   88.3795    9.2151 N.3     1  UNL1       -0.2751
     17 C          60.3212   89.7654    9.6722 C.3     1  UNL1        0.0737
     18 C          61.3204   90.5713   10.4482 C.3     1  UNL1        0.0369
     19 C          62.6664   89.9913   10.7671 C.3     1  UNL1        0.0746
     20 C          63.0132   88.6054   10.3100 C.3     1  UNL1        0.0369
     21 C          62.0140   87.7995    9.5340 C.3     1  UNL1        0.0737
     22 C          59.2737   88.8013    7.6730 C.3     1  UNL1        0.0160
     23 C          59.6688   87.5737    8.4391 C.3     1  UNL1        0.0455
     24 C          60.0638   86.3461    9.2053 C.3     1  UNL1        0.0160
     25 C          58.6696   86.7678    7.6631 C.3     1  UNL1        0.0160
@<TRIPOS>BOND
     1    22    23    1
     2    23    24    1
     3    23    25    1
     4    23    16    1
     5    16    17    1
     6    17    18    1
     7    18    19    1
     8    19     1    1
     9     1     2   am
    10     2     3    2
    11     2     5    1
    12     5     6   ar
    13     6     7   ar
    14     7     8   ar
    15     8    12    1
    16    12    13    1
    17    12    14    1
    18    12    15    1
    19     8     9   ar
    20     9    10   ar
    21    10    11    1
    22    19    20    1
    23    20    21    1
    24    21    16    1
    25    10     5   ar
    26     1     4    1
@<TRIPOS>MOLECULE
*****
 25 26 0 0 0
SMALL
GASTEIGER

@<TRIPOS>ATOM
      1 N          63.7243   90.6308   11.5617 N.am    1  UNL1       -0.3024
      2 C          63.1795   89.2494   11.7738 C.2     1  UNL1        0.2466
      3 O          63.6492   88.4285   12.9381 O.2     1  UNL1       -0.2701
      4 H          63.4160   91.1695   10.7975 H       1  UNL1        0.1497
      5 C          62.1651   88.6888   10.8215 C.ar    1  UNL1        0.0639
      6 C          61.4057   89.6060    9.9092 C.ar    1  UNL1        0.0053
      7 C          60.3913   89.0454    8.9570 C.ar    1  UNL1        0.0041
      8 C          60.1363   87.5677    8.9171 C.ar    1  UNL1        0.0723
      9 C          60.8957   86.6507    9.8294 C.ar    1  UNL1        0.0154
     10 C          61.9101   87.2113   10.7816 C.ar    1  UNL1        0.0620
     11 CL         62.6695   86.2942   11.6939 Cl      1  UNL1       -0.0821
     12 C          59.1219   87.0072    7.9649 C.3     1  UNL1        0.4186
     13 F          58.1075   86.4466    7.0126 F       1  UNL1       -0.1659
     14 F          59.7176   85.6410    8.1345 F       1  UNL1       -0.1659
     15 F          58.5262   88.3733    7.7953 F       1  UNL1       -0.1659
     16 N          66.7675   92.3124   14.4184 N.3     1  UNL1       -0.2751
     17 C          66.7350   92.7831   12.9945 C.3     1  UNL1        0.0737
     18 C          65.7206   92.2225   12.0423 C.3     1  UNL1        0.0369
     19 C          64.7387   91.1913   12.5139 C.3     1  UNL1        0.0746
     20 C          64.7712   90.7207   13.9378 C.3     1  UNL1        0.0369
     21 C          65.7857   91.2812   14.8900 C.3     1  UNL1        0.0737
     22 C          68.8482   92.7157   14.3274 C.3     1  UNL1        0.0160
     23 C          67.7820   92.8730   15.3706 C.3     1  UNL1        0.0455
     24 C          66.7157   93.0303   16.4139 C.3     1  UNL1        0.0160
     25 C          68.7964   93.4336   16.3228 C.3     1  UNL1        0.0160
@<TRIPOS>BOND
     1    22    23    1
     2    23    24    1
     3    23    25    1
     4    23    16    1
     5    16    17    1
     6    17    18    1
     7    18    19    1
     8    19     1    1
     9     1     2   am
    10     2     3    2
    11     2     5    1
    12     5     6   ar
    13     6     7   ar
    14     7     8   ar
    15     8    12    1
    16    12    13    1
    17    12    14    1
    18    12    15    1
    19     8     9   ar
    20     9    10   ar
    21    10    11    1
    22    19    20    1
    23    20    21    1
    24    21    16    1
    25    10     5   ar
    26     1     4    1
@<TRIPOS>MOLECULE
*****
 25 26 0 0 0
SMALL
GASTEIGER

@<TRIPOS>ATOM
      1 N          63.1666   85.6187   12.7923 N.am    1  UNL1       -0.3024
      2 C          64.0081   84.4164   13.1025 C.2     1  UNL1        0.2466
      3 O          65.1956   84.5459   14.0098 O.2     1  UNL1       -0.2701
      4 H          62.3872   85.5337   12.1968 H       1  UNL1        0.1497
      5 C          63.6622   83.0845   12.5054 C.ar    1  UNL1        0.0639
      6 C          63.2506   81.9483   13.3941 C.ar    1  UNL1        0.0053
      7 C          62.9046   80.6165   12.7971 C.ar    1  UNL1        0.0041
      8 C          62.9703   80.4208   11.3113 C.ar    1  UNL1        0.0723
      9 C          63.3818   81.5570   10.4227 C.ar    1  UNL1        0.0154
     10 C          63.7278   82.8888   11.0197 C.ar    1  UNL1        0.0620
     11 CL         64.1393   84.0250   10.1311 Cl      1  UNL1       -0.0821
     12 C          62.6244   79.0890   10.7142 C.3     1  UNL1        0.4186
     13 F          62.2784   77.7571   10.1171 F       1  UNL1       -0.1659
     14 F          62.7933   79.6619    9.3383 F       1  UNL1       -0.1659
     15 F          62.4554   78.5160   12.0901 F       1  UNL1       -0.1659
     16 N          64.2044   89.6142   14.5836 N.3     1  UNL1       -0.2751
     17 C          64.3410   88.3661   15.4042 C.3     1  UNL1        0.0737
     18 C          63.9951   87.0343   14.8072 C.3     1  UNL1        0.0369
     19 C          63.5125   86.9505   13.3894 C.3     1  UNL1        0.0746
     20 C          63.3759   88.1986   12.5687 C.3     1  UNL1        0.0369
     21 C          63.7218   89.5305   13.1658 C.3     1  UNL1        0.0737
     22 C          63.6181   90.6756   16.3242 C.3     1  UNL1        0.0160
     23 C          64.5503   90.9461   15.1806 C.3     1  UNL1        0.0455
     24 C          65.4826   91.2166   14.0371 C.3     1  UNL1        0.0160
     25 C          64.8962   92.2779   15.7777 C.3     1  UNL1        0.0160
@<TRIPOS>BOND
     1    22    23    1
     2    23    24    1
     3    23    25    1
     4    23    16    1
     5    16    17    1
     6    17    18    1
     7    18    19    1
     8    19     1    1
     9     1     2   am
    10     2     3    2
    11     2     5    1
    12     5     6   ar
    13     6     7   ar
    14     7     8   ar
    15     8    12    1
    16    12    13    1
    17    12    14    1
    18    12    15    1
    19     8     9   ar
    20     9    10   ar
    21    10    11    1
    22    19    20    1
    23    20    21    1
    24    21    16    1
    25    10     5   ar
    26     1     4    1
@<TRIPOS>MOLECULE
*****
 25 26 0 0 0
SMALL
GASTEIGER

@<TRIPOS>ATOM
      1 N          64.2671   86.6207   14.2751 N.am    1  UNL1       -0.3024
      2 C          63.7441   87.6809   13.3520 C.2     1  UNL1        0.2466
      3 O          62.7134   87.3340   12.3188 O.2     1  UNL1       -0.2701
      4 H          64.9435   86.8484   14.9532 H       1  UNL1        0.1497
      5 C          64.2516   89.0881   13.4619 C.ar    1  UNL1        0.0639
      6 C          65.1317   89.4803   14.6117 C.ar    1  UNL1        0.0053
      7 C          65.6392   90.8876   14.7216 C.ar    1  UNL1        0.0041
      8 C          65.2668   91.9026   13.6818 C.ar    1  UNL1        0.0723
      9 C          64.3869   91.5104   12.5321 C.ar    1  UNL1        0.0154
     10 C          63.8793   90.1031   12.4222 C.ar    1  UNL1        0.0620
     11 CL         62.9993   89.7109   11.2725 Cl      1  UNL1       -0.0821
     12 C          65.7744   93.3098   13.7918 C.3     1  UNL1        0.4186
     13 F          66.2820   94.7170   13.9017 F       1  UNL1       -0.1659
     14 F          65.5237   93.5147   12.3271 F       1  UNL1       -0.1659
     15 F          66.0251   93.1049   15.2564 F       1  UNL1       -0.1659
     16 N          62.7444   82.3990   13.9453 N.3     1  UNL1       -0.2751
     17 C          63.7011   82.9334   12.9211 C.3     1  UNL1        0.0737
     18 C          64.2087   84.3406   13.0311 C.3     1  UNL1        0.0369
     19 C          63.7595   85.2135   14.1652 C.3     1  UNL1        0.0746
     20 C          62.8027   84.6791   15.1894 C.3     1  UNL1        0.0369
     21 C          62.2951   83.2719   15.0794 C.3     1  UNL1        0.0737
     22 C          63.6187   80.5201   13.4923 C.3     1  UNL1        0.0160
     23 C          62.2368   80.9918   13.8353 C.3     1  UNL1        0.0455
     24 C          60.8548   81.4635   14.1784 C.3     1  UNL1        0.0160
     25 C          61.7292   79.5846   13.7254 C.3     1  UNL1        0.0160
@<TRIPOS>BOND
     1    22    23    1
     2    23    24    1
     3    23    25    1
     4    23    16    1
     5    16    17    1
     6    17    18    1
     7    18    19    1
     8    19     1    1
     9     1     2   am
    10     2     3    2
    11     2     5    1
    12     5     6   ar
    13     6     7   ar
    14     7     8   ar
    15     8    12    1
    16    12    13    1
    17    12    14    1
    18    12    15    1
    19     8     9   ar
    20     9    10   ar
    21    10    11    1
    22    19    20    1
    23    20    21    1
    24    21    16    1
    25    10     5   ar
    26     1     4    1
