@<TRIPOS>MOLECULE
*****
 24 27 0 0 0
SMALL
GASTEIGER

@<TRIPOS>ATOM
      1 O          64.6958   89.3600   14.6072 O.2     1  UNL1       -0.2638
      2 C          64.1691   88.1104   13.9659 C.ar    1  UNL1        0.2947
      3 N          64.5149   86.7691   14.5414 N.ar    1  UNL1       -0.3062
      4 C          63.9882   85.5195   13.9002 C.ar    1  UNL1        0.1358
      5 N          63.1158   85.6113   12.6834 N.ar    1  UNL1       -0.2278
      6 C          62.7700   86.9526   12.1079 C.ar    1  UNL1        0.1247
      7 C          63.2967   88.2022   12.7492 C.ar    1  UNL1        0.2184
      8 O          62.7905   89.3752   11.9632 O.2     1  UNL1       -0.4471
      9 C          61.9510   88.8506   10.8362 C.ar    1  UNL1        0.1471
     10 C          61.1965   89.5429    9.7401 C.ar    1  UNL1        0.0381
     11 C          60.4293   88.7379    8.7335 C.ar    1  UNL1        0.0098
     12 C          60.4167   87.2406    8.8229 C.ar    1  UNL1        0.0348
     13 BR         59.6494   86.4356    7.8162 Br      1  UNL1       -0.0490
     14 C          61.1712   86.5483    9.9190 C.ar    1  UNL1        0.0113
     15 C          61.9383   87.3533   10.9256 C.ar    1  UNL1        0.0559
     16 H          65.0875   86.7088   15.3400 H       1  UNL1        0.1702
     17 C          64.3340   84.1781   14.4757 C.3     1  UNL1        0.1370
     18 N          63.4937   82.9805   14.1442 N.3     1  UNL1       -0.2642
     19 C          63.8885   81.8490   13.2420 C.3     1  UNL1        0.0751
     20 C          62.7499   80.8735   13.1969 C.3     1  UNL1        0.0480
     21 C          61.6516   81.4020   14.0710 C.3     1  UNL1        0.1278
     22 O          60.3262   80.7439   14.3167 O.3     1  UNL1       -0.3830
     23 C          62.1112   82.7043   14.6565 C.3     1  UNL1        0.1020
     24 H          59.7999   81.2920   14.9196 H       1  UNL1        0.2104
@<TRIPOS>BOND
     1     1     2    2
     2     2     3   ar
     3     3     4   ar
     4     4    17    1
     5    17    18    1
     6    18    19    1
     7    19    20    1
     8    20    21    1
     9    21    22    1
    10    21    23    1
    11     4     5   ar
    12     5     6   ar
    13     6     7   ar
    14     7     8   ar
    15     8     9   ar
    16     9    10   ar
    17    10    11   ar
    18    11    12   ar
    19    12    13    1
    20    12    14   ar
    21    14    15   ar
    22     7     2   ar
    23    15     9   ar
    24    23    18    1
    25    15     6   ar
    26     3    16    1
    27    22    24    1
@<TRIPOS>MOLECULE
*****
 24 27 0 0 0
SMALL
GASTEIGER

@<TRIPOS>ATOM
      1 O          62.3627   86.2760   18.2033 O.2     1  UNL1       -0.2638
      2 C          62.9032   86.5101   16.8239 C.ar    1  UNL1        0.2947
      3 N          63.4045   87.8695   16.4356 N.ar    1  UNL1       -0.3062
      4 C          63.9451   88.1037   15.0561 C.ar    1  UNL1        0.1358
      5 N          63.9844   86.9785   14.0649 N.ar    1  UNL1       -0.2278
      6 C          63.4831   85.6191   14.4532 C.ar    1  UNL1        0.1247
      7 C          62.9425   85.3850   15.8327 C.ar    1  UNL1        0.2184
      8 O          62.5218   83.9483   15.9279 O.2     1  UNL1       -0.4471
      9 C          62.8023   83.2946   14.6073 C.ar    1  UNL1        0.1471
     10 C          62.5935   81.8925   14.1169 C.ar    1  UNL1        0.0381
     11 C          62.9788   81.5231   12.7152 C.ar    1  UNL1        0.0098
     12 C          63.5730   82.5557   11.8038 C.ar    1  UNL1        0.0348
     13 BR         63.9583   82.1862   10.4019 Br      1  UNL1       -0.0490
     14 C          63.7818   83.9578   12.2941 C.ar    1  UNL1        0.0113
     15 C          63.3964   84.3273   13.6959 C.ar    1  UNL1        0.0559
     16 H          63.3788   88.6080   17.0861 H       1  UNL1        0.1702
     17 C          64.4465   89.4631   14.6678 C.3     1  UNL1        0.1370
     18 N          63.9963   90.0892   13.3811 N.3     1  UNL1       -0.2642
     19 C          64.6945   91.1957   12.6475 C.3     1  UNL1        0.0751
     20 C          63.8987   91.5089   11.4152 C.3     1  UNL1        0.0480
     21 C          62.7087   90.5962   11.3873 C.3     1  UNL1        0.1278
     22 O          61.6451   90.5662   10.3300 O.3     1  UNL1       -0.3830
     23 C          62.7691   89.7187   12.6023 C.3     1  UNL1        0.1020
     24 H          60.9902   89.8851   10.5494 H       1  UNL1        0.2104
@<TRIPOS>BOND
     1     1     2    2
     2     2     3   ar
     3     3     4   ar
     4     4    17    1
     5    17    18    1
     6    18    19    1
     7    19    20    1
     8    20    21    1
     9    21    22    1
    10    21    23    1
    11     4     5   ar
    12     5     6   ar
    13     6     7   ar
    14     7     8   ar
    15     8     9   ar
    16     9    10   ar
    17    10    11   ar
    18    11    12   ar
    19    12    13    1
    20    12    14   ar
    21    14    15   ar
    22     7     2   ar
    23    15     9   ar
    24    23    18    1
    25    15     6   ar
    26     3    16    1
    27    22    24    1
@<TRIPOS>MOLECULE
*****
 24 27 0 0 0
SMALL
GASTEIGER

@<TRIPOS>ATOM
      1 O          63.9175   91.1704   14.0554 O.2     1  UNL1       -0.2638
      2 C          63.6689   89.7635   13.5984 C.ar    1  UNL1        0.2947
      3 N          64.2573   88.6127   14.3596 N.ar    1  UNL1       -0.3062
      4 C          64.0087   87.2058   13.9026 C.ar    1  UNL1        0.1358
      5 N          63.1717   86.9497   12.6845 N.ar    1  UNL1       -0.2278
      6 C          62.5833   88.1005   11.9233 C.ar    1  UNL1        0.1247
      7 C          62.8319   89.5074   12.3803 C.ar    1  UNL1        0.2184
      8 O          62.1261   90.4334   11.4347 O.2     1  UNL1       -0.4471
      9 C          61.4412   89.5989   10.3933 C.ar    1  UNL1        0.1471
     10 C          60.5968   89.9655    9.2090 C.ar    1  UNL1        0.0381
     11 C          60.0350   88.8904    8.3268 C.ar    1  UNL1        0.0098
     12 C          60.3176   87.4485    8.6288 C.ar    1  UNL1        0.0348
     13 BR         59.7558   86.3734    7.7465 Br      1  UNL1       -0.0490
     14 C          61.1620   87.0819    9.8130 C.ar    1  UNL1        0.0113
     15 C          61.7238   88.1570   10.6953 C.ar    1  UNL1        0.0559
     16 H          64.8067   88.7808   15.1591 H       1  UNL1        0.1702
     17 C          64.5972   86.0549   14.6638 C.3     1  UNL1        0.1370
     18 N          64.1503   84.6538   14.3688 N.3     1  UNL1       -0.2642
     19 C          64.7214   83.7492   13.3172 C.3     1  UNL1        0.0751
     20 C          63.9779   82.4476   13.3721 C.3     1  UNL1        0.0480
     21 C          62.9474   82.5476   14.4574 C.3     1  UNL1        0.1278
     22 O          61.9802   81.4729   14.8567 O.3     1  UNL1       -0.3830
     23 C          63.0539   83.9111   15.0735 C.3     1  UNL1        0.1020
     24 H          61.4235   81.7928   15.5839 H       1  UNL1        0.2104
@<TRIPOS>BOND
     1     1     2    2
     2     2     3   ar
     3     3     4   ar
     4     4    17    1
     5    17    18    1
     6    18    19    1
     7    19    20    1
     8    20    21    1
     9    21    22    1
    10    21    23    1
    11     4     5   ar
    12     5     6   ar
    13     6     7   ar
    14     7     8   ar
    15     8     9   ar
    16     9    10   ar
    17    10    11   ar
    18    11    12   ar
    19    12    13    1
    20    12    14   ar
    21    14    15   ar
    22     7     2   ar
    23    15     9   ar
    24    23    18    1
    25    15     6   ar
    26     3    16    1
    27    22    24    1
@<TRIPOS>MOLECULE
*****
 24 27 0 0 0
SMALL
GASTEIGER

@<TRIPOS>ATOM
      1 O          64.6776   86.7885   14.8209 O.2     1  UNL1       -0.2638
      2 C          64.2110   87.9470   13.9901 C.ar    1  UNL1        0.2947
      3 N          64.6328   89.3421   14.3446 N.ar    1  UNL1       -0.3062
      4 C          64.1663   90.5006   13.5138 C.ar    1  UNL1        0.1358
      5 N          63.2778   90.2640   12.3286 N.ar    1  UNL1       -0.2278
      6 C          62.8559   88.8689   11.9742 C.ar    1  UNL1        0.1247
      7 C          63.3225   87.7104   12.8049 C.ar    1  UNL1        0.2184
      8 O          62.7472   86.4564   12.2162 O.2     1  UNL1       -0.4471
      9 C          61.9250   86.8399   11.0216 C.ar    1  UNL1        0.1471
     10 C          61.1239   86.0241   10.0508 C.ar    1  UNL1        0.0381
     11 C          60.3900   86.6993    8.9304 C.ar    1  UNL1        0.0098
     12 C          60.4572   88.1903    8.7808 C.ar    1  UNL1        0.0348
     13 BR         59.7232   88.8655    7.6602 Br      1  UNL1       -0.0490
     14 C          61.2583   89.0061    9.7516 C.ar    1  UNL1        0.0113
     15 C          61.9922   88.3309   10.8720 C.ar    1  UNL1        0.0559
     16 H          65.2160   89.4974   15.1224 H       1  UNL1        0.1702
     17 C          64.5881   91.8958   13.8682 C.3     1  UNL1        0.1370
     18 N          65.9682   92.1503   14.3981 N.3     1  UNL1       -0.2642
     19 C          66.3109   92.5873   15.7915 C.3     1  UNL1        0.0751
     20 C          67.8023   92.7195   15.8821 C.3     1  UNL1        0.0480
     21 C          68.3813   92.3643   14.5448 C.3     1  UNL1        0.1278
     22 O          69.8381   92.3614   14.1873 O.3     1  UNL1       -0.3830
     23 C          67.2478   92.0125   13.6275 C.3     1  UNL1        0.1020
     24 H          69.9431   92.0944   13.2607 H       1  UNL1        0.2104
@<TRIPOS>BOND
     1     1     2    2
     2     2     3   ar
     3     3     4   ar
     4     4    17    1
     5    17    18    1
     6    18    19    1
     7    19    20    1
     8    20    21    1
     9    21    22    1
    10    21    23    1
    11     4     5   ar
    12     5     6   ar
    13     6     7   ar
    14     7     8   ar
    15     8     9   ar
    16     9    10   ar
    17    10    11   ar
    18    11    12   ar
    19    12    13    1
    20    12    14   ar
    21    14    15   ar
    22     7     2   ar
    23    15     9   ar
    24    23    18    1
    25    15     6   ar
    26     3    16    1
    27    22    24    1
@<TRIPOS>MOLECULE
*****
 24 27 0 0 0
SMALL
GASTEIGER

@<TRIPOS>ATOM
      1 O          62.1813   91.0186   10.5536 O.2     1  UNL1       -0.2638
      2 C          62.7475   90.3099   11.7483 C.ar    1  UNL1        0.2947
      3 N          63.2859   91.1004   12.9038 N.ar    1  UNL1       -0.3062
      4 C          63.8520   90.3917   14.0984 C.ar    1  UNL1        0.1358
      5 N          63.8799   88.8925   14.1376 N.ar    1  UNL1       -0.2278
      6 C          63.3415   88.1019   12.9821 C.ar    1  UNL1        0.1247
      7 C          62.7753   88.8106   11.7874 C.ar    1  UNL1        0.2184
      8 O          62.3200   87.7723   10.8053 O.2     1  UNL1       -0.4471
      9 C          62.6048   86.4219   11.3930 C.ar    1  UNL1        0.1471
     10 C          62.3708   85.0331   10.8768 C.ar    1  UNL1        0.0381
     11 C          62.7682   83.8480   11.7061 C.ar    1  UNL1        0.0098
     12 C          63.3995   84.0517   13.0514 C.ar    1  UNL1        0.0348
     13 BR         63.7968   82.8665   13.8806 Br      1  UNL1       -0.0490
     14 C          63.6335   85.4405   13.5675 C.ar    1  UNL1        0.0113
     15 C          63.2361   86.6256   12.7383 C.ar    1  UNL1        0.0559
     16 H          63.2676   92.0844   12.8781 H       1  UNL1        0.1702
     17 C          64.3905   91.1823   15.2540 C.3     1  UNL1        0.1370
     18 N          65.7860   91.7297   15.2028 N.3     1  UNL1       -0.2642
     19 C          66.3964   92.6815   16.1885 C.3     1  UNL1        0.0751
     20 C          67.8038   92.9615   15.7518 C.3     1  UNL1        0.0480
     21 C          68.0633   92.1830   14.4963 C.3     1  UNL1        0.1278
     22 O          69.3448   92.1682   13.7169 O.3     1  UNL1       -0.3830
     23 C          66.8162   91.4216   14.1570 C.3     1  UNL1        0.1020
     24 H          69.2489   91.5848   12.9479 H       1  UNL1        0.2104
@<TRIPOS>BOND
     1     1     2    2
     2     2     3   ar
     3     3     4   ar
     4     4    17    1
     5    17    18    1
     6    18    19    1
     7    19    20    1
     8    20    21    1
     9    21    22    1
    10    21    23    1
    11     4     5   ar
    12     5     6   ar
    13     6     7   ar
    14     7     8   ar
    15     8     9   ar
    16     9    10   ar
    17    10    11   ar
    18    11    12   ar
    19    12    13    1
    20    12    14   ar
    21    14    15   ar
    22     7     2   ar
    23    15     9   ar
    24    23    18    1
    25    15     6   ar
    26     3    16    1
    27    22    24    1
@<TRIPOS>MOLECULE
*****
 24 27 0 0 0
SMALL
GASTEIGER

@<TRIPOS>ATOM
      1 O          61.2199   85.8559   10.0899 O.2     1  UNL1       -0.2638
      2 C          62.1028   85.9631   11.2978 C.ar    1  UNL1        0.2947
      3 N          62.4815   84.7291   12.0618 N.ar    1  UNL1       -0.3062
      4 C          63.3644   84.8363   13.2697 C.ar    1  UNL1        0.1358
      5 N          63.8687   86.1776   13.7135 N.ar    1  UNL1       -0.2278
      6 C          63.4900   87.4115   12.9494 C.ar    1  UNL1        0.1247
      7 C          62.6070   87.3043   11.7415 C.ar    1  UNL1        0.2184
      8 O          62.4031   88.6852   11.1924 O.2     1  UNL1       -0.4471
      9 C          63.1600   89.6459   12.0609 C.ar    1  UNL1        0.1471
     10 C          63.3244   91.1357   12.0032 C.ar    1  UNL1        0.0381
     11 C          64.1605   91.8383   13.0315 C.ar    1  UNL1        0.0098
     12 C          64.8322   91.0511   14.1173 C.ar    1  UNL1        0.0348
     13 BR         65.6683   91.7539   15.1456 Br      1  UNL1       -0.0490
     14 C          64.6678   89.5613   14.1750 C.ar    1  UNL1        0.0113
     15 C          63.8318   88.8587   13.1468 C.ar    1  UNL1        0.0559
     16 H          62.1506   83.8488   11.7706 H       1  UNL1        0.1702
     17 C          63.7432   83.6023   14.0338 C.3     1  UNL1        0.1370
     18 N          62.9061   82.3628   13.9194 N.3     1  UNL1       -0.2642
     19 C          63.3178   81.0785   13.2627 C.3     1  UNL1        0.0751
     20 C          62.1765   80.1121   13.3790 C.3     1  UNL1        0.0480
     21 C          61.0597   80.7990   14.1074 C.3     1  UNL1        0.1278
     22 O          59.7260   80.2000   14.4430 O.3     1  UNL1       -0.3830
     23 C          61.5106   82.1901   14.4414 C.3     1  UNL1        0.1020
     24 H          59.1876   80.8539   14.9157 H       1  UNL1        0.2104
@<TRIPOS>BOND
     1     1     2    2
     2     2     3   ar
     3     3     4   ar
     4     4    17    1
     5    17    18    1
     6    18    19    1
     7    19    20    1
     8    20    21    1
     9    21    22    1
    10    21    23    1
    11     4     5   ar
    12     5     6   ar
    13     6     7   ar
    14     7     8   ar
    15     8     9   ar
    16     9    10   ar
    17    10    11   ar
    18    11    12   ar
    19    12    13    1
    20    12    14   ar
    21    14    15   ar
    22     7     2   ar
    23    15     9   ar
    24    23    18    1
    25    15     6   ar
    26     3    16    1
    27    22    24    1
@<TRIPOS>MOLECULE
*****
 24 27 0 0 0
SMALL
GASTEIGER

@<TRIPOS>ATOM
      1 O          62.7921   87.3351   18.3681 O.2     1  UNL1       -0.2638
      2 C          63.1753   87.5138   16.9289 C.ar    1  UNL1        0.2947
      3 N          63.4186   88.8895   16.3829 N.ar    1  UNL1       -0.3062
      4 C          63.8018   89.0681   14.9437 C.ar    1  UNL1        0.1358
      5 N          63.9416   87.8711   14.0506 N.ar    1  UNL1       -0.2278
      6 C          63.6982   86.4954   14.5967 C.ar    1  UNL1        0.1247
      7 C          63.3150   86.3167   16.0358 C.ar    1  UNL1        0.2184
      8 O          63.1398   84.8489   16.2900 O.2     1  UNL1       -0.4471
      9 C          63.4146   84.1203   15.0079 C.ar    1  UNL1        0.1471
     10 C          63.3951   82.6618   14.6582 C.ar    1  UNL1        0.0381
     11 C          63.7209   82.2210   13.2620 C.ar    1  UNL1        0.0098
     12 C          64.0660   83.2386   12.2155 C.ar    1  UNL1        0.0348
     13 BR         64.3917   82.7976   10.8192 Br      1  UNL1       -0.0490
     14 C          64.0855   84.6971   12.5651 C.ar    1  UNL1        0.0113
     15 C          63.7597   85.1380   13.9613 C.ar    1  UNL1        0.0559
     16 H          63.3269   89.6751   16.9690 H       1  UNL1        0.1702
     17 C          64.0452   90.4439   14.3975 C.3     1  UNL1        0.1370
     18 N          65.2618   91.2136   14.8188 N.3     1  UNL1       -0.2642
     19 C          65.3549   92.1414   15.9938 C.3     1  UNL1        0.0751
     20 C          66.7495   92.6919   16.0401 C.3     1  UNL1        0.0480
     21 C          67.5182   92.1044   14.8939 C.3     1  UNL1        0.1278
     22 O          68.9542   92.3818   14.5609 O.3     1  UNL1       -0.3830
     23 C          66.5987   91.1908   14.1390 C.3     1  UNL1        0.1020
     24 H          69.2069   91.8760   13.7728 H       1  UNL1        0.2104
@<TRIPOS>BOND
     1     1     2    2
     2     2     3   ar
     3     3     4   ar
     4     4    17    1
     5    17    18    1
     6    18    19    1
     7    19    20    1
     8    20    21    1
     9    21    22    1
    10    21    23    1
    11     4     5   ar
    12     5     6   ar
    13     6     7   ar
    14     7     8   ar
    15     8     9   ar
    16     9    10   ar
    17    10    11   ar
    18    11    12   ar
    19    12    13    1
    20    12    14   ar
    21    14    15   ar
    22     7     2   ar
    23    15     9   ar
    24    23    18    1
    25    15     6   ar
    26     3    16    1
    27    22    24    1
@<TRIPOS>MOLECULE
*****
 24 27 0 0 0
SMALL
GASTEIGER

@<TRIPOS>ATOM
      1 O          64.3016   82.2511   10.4648 O.2     1  UNL1       -0.2638
      2 C          63.8856   83.4152   11.3143 C.ar    1  UNL1        0.2947
      3 N          64.2687   83.4607   12.7638 N.ar    1  UNL1       -0.3062
      4 C          63.8526   84.6248   13.6133 C.ar    1  UNL1        0.1358
      5 N          63.0534   85.7434   13.0133 N.ar    1  UNL1       -0.2278
      6 C          62.6703   85.6979   11.5638 C.ar    1  UNL1        0.1247
      7 C          63.0864   84.5338   10.7143 C.ar    1  UNL1        0.2184
      8 O          62.5657   84.7634    9.3264 O.2     1  UNL1       -0.4471
      9 C          61.8279   86.0693    9.3181 C.ar    1  UNL1        0.1471
     10 C          61.1056   86.8072    8.2301 C.ar    1  UNL1        0.0381
     11 C          60.4479   88.1226    8.5249 C.ar    1  UNL1        0.0098
     12 C          60.5125   88.7002    9.9078 C.ar    1  UNL1        0.0348
     13 BR         59.8547   90.0158   10.2025 Br      1  UNL1       -0.0490
     14 C          61.2348   87.9624   10.9958 C.ar    1  UNL1        0.0113
     15 C          61.8925   86.6469   10.7009 C.ar    1  UNL1        0.0559
     16 H          64.7932   82.7265   13.1576 H       1  UNL1        0.1702
     17 C          64.2357   84.6703   15.0629 C.3     1  UNL1        0.1370
     18 N          63.6751   85.7391   15.9536 N.3     1  UNL1       -0.2642
     19 C          62.7679   85.5217   17.1283 C.3     1  UNL1        0.0751
     20 C          62.4555   86.8612   17.7266 C.3     1  UNL1        0.0480
     21 C          63.1694   87.9064   16.9219 C.3     1  UNL1        0.1278
     22 O          63.1356   89.3855   17.1695 O.3     1  UNL1       -0.3830
     23 C          63.9233   87.2130   15.8261 C.3     1  UNL1        0.1020
     24 H          63.6814   89.8368   16.5067 H       1  UNL1        0.2104
@<TRIPOS>BOND
     1     1     2    2
     2     2     3   ar
     3     3     4   ar
     4     4    17    1
     5    17    18    1
     6    18    19    1
     7    19    20    1
     8    20    21    1
     9    21    22    1
    10    21    23    1
    11     4     5   ar
    12     5     6   ar
    13     6     7   ar
    14     7     8   ar
    15     8     9   ar
    16     9    10   ar
    17    10    11   ar
    18    11    12   ar
    19    12    13    1
    20    12    14   ar
    21    14    15   ar
    22     7     2   ar
    23    15     9   ar
    24    23    18    1
    25    15     6   ar
    26     3    16    1
    27    22    24    1
@<TRIPOS>MOLECULE
*****
 24 27 0 0 0
SMALL
GASTEIGER

@<TRIPOS>ATOM
      1 O          60.6461   87.6053    8.1480 O.2     1  UNL1       -0.2638
      2 C          61.3580   87.8642    9.4426 C.ar    1  UNL1        0.2947
      3 N          61.6061   89.2731    9.8934 N.ar    1  UNL1       -0.3062
      4 C          62.3180   89.5320   11.1880 C.ar    1  UNL1        0.1358
      5 N          62.7819   88.3819   12.0319 N.ar    1  UNL1       -0.2278
      6 C          62.5338   86.9730   11.5812 C.ar    1  UNL1        0.1247
      7 C          61.8219   86.7141   10.2865 C.ar    1  UNL1        0.2184
      8 O          61.7204   85.2289   10.1024 O.2     1  UNL1       -0.4471
      9 C          62.3696   84.5699   11.2832 C.ar    1  UNL1        0.1471
     10 C          62.5679   83.1276   11.6442 C.ar    1  UNL1        0.0381
     11 C          63.2690   82.7632   12.9192 C.ar    1  UNL1        0.0098
     12 C          63.7717   83.8411   13.8332 C.ar    1  UNL1        0.0348
     13 BR         64.4728   83.4767   15.1083 Br      1  UNL1       -0.0490
     14 C          63.5734   85.2834   13.4722 C.ar    1  UNL1        0.0113
     15 C          62.8723   85.6478   12.1971 C.ar    1  UNL1        0.0559
     16 H          61.3016   90.0280    9.3395 H       1  UNL1        0.1702
     17 C          62.5661   90.9411   11.6388 C.3     1  UNL1        0.1370
     18 N          63.8216   91.2792   12.3868 N.3     1  UNL1       -0.2642
     19 C          64.1380   90.8886   13.8001 C.3     1  UNL1        0.0751
     20 C          65.4930   91.4352   14.1396 C.3     1  UNL1        0.0480
     21 C          66.0139   92.1636   12.9363 C.3     1  UNL1        0.1278
     22 O          67.3358   92.8652   12.8342 O.3     1  UNL1       -0.3830
     23 C          64.9809   92.0672   11.8530 C.3     1  UNL1        0.1020
     24 H          67.4277   93.2546   11.9505 H       1  UNL1        0.2104
@<TRIPOS>BOND
     1     1     2    2
     2     2     3   ar
     3     3     4   ar
     4     4    17    1
     5    17    18    1
     6    18    19    1
     7    19    20    1
     8    20    21    1
     9    21    22    1
    10    21    23    1
    11     4     5   ar
    12     5     6   ar
    13     6     7   ar
    14     7     8   ar
    15     8     9   ar
    16     9    10   ar
    17    10    11   ar
    18    11    12   ar
    19    12    13    1
    20    12    14   ar
    21    14    15   ar
    22     7     2   ar
    23    15     9   ar
    24    23    18    1
    25    15     6   ar
    26     3    16    1
    27    22    24    1
