@<TRIPOS>MOLECULE
*****
 43 47 0 0 0
SMALL
GASTEIGER

@<TRIPOS>ATOM
      1 O          54.3038   95.1014   -1.4956 O.2     1  UNL1       -0.2749
      2 C          54.7457   95.4121   -2.8950 C.2     1  UNL1        0.2253
      3 N          56.2048   95.3913   -3.2428 N.am    1  UNL1       -0.2791
      4 C          56.7937   95.6789   -4.5920 C.3     1  UNL1        0.0955
      5 C          58.2839   95.5446   -4.4855 C.3     1  UNL1        0.0496
      6 C          58.6159   95.1738   -3.0705 C.3     1  UNL1        0.1514
      7 C          59.9223   94.9103   -2.3821 C.ar    1  UNL1       -0.0046
      8 C          61.2072   95.0050   -3.1502 C.ar    1  UNL1       -0.0032
      9 C          62.5136   94.7415   -2.4618 C.ar    1  UNL1       -0.0015
     10 C          62.5350   94.3832   -1.0054 C.ar    1  UNL1        0.0232
     11 C          61.2501   94.2885   -0.2373 C.ar    1  UNL1       -0.0057
     12 C          59.9438   94.5520   -0.9257 C.ar    1  UNL1       -0.0247
     13 C          58.6587   94.4573   -0.1577 C.3     1  UNL1        0.0278
     14 C          57.3524   94.7208   -0.8460 C.3     1  UNL1        0.0265
     15 C          57.3309   95.0791   -2.3025 C.3     1  UNL1        0.1001
     16 C          53.7288   95.7435   -3.9465 C.3     1  UNL1        0.0802
     17 C          52.3243   96.0895   -3.5491 C.3     1  UNL1        0.0344
     18 C          51.3073   96.4210   -4.6006 C.3     1  UNL1        0.1513
     19 S          51.6947   96.4065   -6.0497 S.O2    1  UNL1       -0.0100
     20 O          51.5805   96.5267   -7.5405 O.2     1  UNL1       -0.1730
     21 O          50.2507   96.7942   -6.1699 O.2     1  UNL1       -0.1730
     22 C          53.0991   96.0606   -6.4471 C.3     1  UNL1        0.1513
     23 C          54.1161   95.7291   -5.3956 C.3     1  UNL1        0.0344
     24 S          59.8136   95.3056   -3.9638 S.O2    1  UNL1        0.0106
     25 O          59.9405   94.5639   -4.2269 O.2     1  UNL1       -0.1684
     26 O          59.8663   96.7768   -3.6763 O.2     1  UNL1       -0.1684
     27 C          61.0115   95.4373   -4.8572 C.ar    1  UNL1        0.1061
     28 C          61.7967   96.7151   -4.8751 C.ar    1  UNL1        0.0207
     29 C          62.9945   96.8469   -5.7684 C.ar    1  UNL1        0.0310
     30 C          63.4069   95.7008   -6.6437 C.ar    1  UNL1        0.1402
     31 F          64.6048   95.8325   -7.5371 F       1  UNL1       -0.2042
     32 C          62.6216   94.4229   -6.6258 C.ar    1  UNL1        0.0310
     33 C          61.4239   94.2912   -5.7325 C.ar    1  UNL1        0.0207
     34 C          63.8415   94.1197   -0.3170 C.3     1  UNL1        0.3242
     35 F          64.1199   92.9991   -1.2745 F       1  UNL1       -0.2176
     36 C          65.1479   93.8561    0.3713 C.3     1  UNL1        0.4363
     37 F          66.4544   93.5926    1.0597 F       1  UNL1       -0.1666
     38 F          64.7440   92.4284    0.5912 F       1  UNL1       -0.1666
     39 F          65.7081   95.2411    0.2369 F       1  UNL1       -0.1666
     40 C          63.5631   95.2402    0.6405 C.3     1  UNL1        0.4363
     41 F          63.2847   96.3609    1.5980 F       1  UNL1       -0.1666
     42 F          63.4497   94.3997    1.8776 F       1  UNL1       -0.1666
     43 F          63.5734   96.4667   -0.2232 F       1  UNL1       -0.1666
@<TRIPOS>BOND
     1     1     2    2
     2     2    16    1
     3    16    17    1
     4    17    18    1
     5    18    19    1
     6    19    20    2
     7    19    21    2
     8    19    22    1
     9    22    23    1
    10     2     3   am
    11     3     4    1
    12     4     5    1
    13     5     6    1
    14     6    24    1
    15    24    25    2
    16    24    26    2
    17    24    27    1
    18    27    28   ar
    19    28    29   ar
    20    29    30   ar
    21    30    31    1
    22    30    32   ar
    23    32    33   ar
    24     6     7    1
    25     7     8   ar
    26     8     9   ar
    27     9    10   ar
    28    10    34    1
    29    34    35    1
    30    34    36    1
    31    36    37    1
    32    36    38    1
    33    36    39    1
    34    34    40    1
    35    40    41    1
    36    40    42    1
    37    40    43    1
    38    10    11   ar
    39    11    12   ar
    40    12    13    1
    41    13    14    1
    42    15    14    1
    43    23    16    1
    44    15     3    1
    45    15     6    1
    46    33    27   ar
    47    12     7   ar
@<TRIPOS>MOLECULE
*****
 43 47 0 0 0
SMALL
GASTEIGER

@<TRIPOS>ATOM
      1 O          59.3385   87.0019    6.4426 O.2     1  UNL1       -0.2749
      2 C          59.6578   88.3720    6.9630 C.2     1  UNL1        0.2253
      3 N          60.4284   88.5283    8.2405 N.am    1  UNL1       -0.2791
      4 C          60.8198   89.8270    8.8809 C.3     1  UNL1        0.0955
      5 C          61.5762   89.5146   10.1380 C.3     1  UNL1        0.0496
      6 C          61.6522   88.0228   10.2745 C.3     1  UNL1        0.1514
      7 C          62.2759   87.1408   11.3153 C.ar    1  UNL1       -0.0046
      8 C          62.9852   87.7504   12.4879 C.ar    1  UNL1       -0.0032
      9 C          63.6087   86.8683   13.5286 C.ar    1  UNL1       -0.0015
     10 C          63.5230   85.3766   13.3966 C.ar    1  UNL1        0.0232
     11 C          62.8137   84.7669   12.2240 C.ar    1  UNL1       -0.0057
     12 C          62.1901   85.6490   11.1833 C.ar    1  UNL1       -0.0247
     13 C          61.4807   85.0394   10.0106 C.3     1  UNL1        0.0278
     14 C          60.8572   85.9215    8.9699 C.3     1  UNL1        0.0265
     15 C          60.9429   87.4132    9.1019 C.3     1  UNL1        0.1001
     16 C          59.2066   89.5858    6.2061 C.3     1  UNL1        0.0802
     17 C          57.7471   89.9242    6.1325 C.3     1  UNL1        0.0344
     18 C          57.2959   91.1381    5.3756 C.3     1  UNL1        0.1513
     19 S          58.3042   92.0135    4.6922 S.O2    1  UNL1       -0.0100
     20 O          58.8743   93.1427    3.8860 O.2     1  UNL1       -0.1730
     21 O          57.0427   92.7440    4.3387 O.2     1  UNL1       -0.1730
     22 C          59.7636   91.6751    4.7658 C.3     1  UNL1        0.1513
     23 C          60.2149   90.4613    5.5227 C.3     1  UNL1        0.0344
     24 S          62.3252   88.7724   11.3859 S.O2    1  UNL1        0.0106
     25 O          63.0853   88.8239   11.1513 O.2     1  UNL1       -0.1684
     26 O          61.0191   88.8596   12.1182 O.2     1  UNL1       -0.1684
     27 C          62.9983   89.5220   12.4974 C.ar    1  UNL1        0.1061
     28 C          62.4157   89.4969   13.8793 C.ar    1  UNL1        0.0207
     29 C          63.0887   90.2465   14.9907 C.ar    1  UNL1        0.0310
     30 C          64.3443   91.0211   14.7201 C.ar    1  UNL1        0.1402
     31 F          65.0174   91.7707   15.8315 F       1  UNL1       -0.2042
     32 C          64.9269   91.0462   13.3381 C.ar    1  UNL1        0.0310
     33 C          64.2539   90.2967   12.2268 C.ar    1  UNL1        0.0207
     34 C          64.1466   84.4945   14.4374 C.3     1  UNL1        0.3242
     35 F          65.1291   83.9910   13.4219 F       1  UNL1       -0.2176
     36 C          64.7702   83.6124   15.4780 C.3     1  UNL1        0.4363
     37 F          65.3938   82.7303   16.5188 F       1  UNL1       -0.1666
     38 F          66.1223   84.1641   15.1355 F       1  UNL1       -0.1666
     39 F          63.5042   82.9573   15.9450 F       1  UNL1       -0.1666
     40 C          63.1641   84.9979   15.4528 C.3     1  UNL1        0.4363
     41 F          62.1815   85.5014   16.4684 F       1  UNL1       -0.1666
     42 F          64.1554   85.6956   16.3362 F       1  UNL1       -0.1666
     43 F          61.8401   84.4977   14.9560 F       1  UNL1       -0.1666
@<TRIPOS>BOND
     1     1     2    2
     2     2    16    1
     3    16    17    1
     4    17    18    1
     5    18    19    1
     6    19    20    2
     7    19    21    2
     8    19    22    1
     9    22    23    1
    10     2     3   am
    11     3     4    1
    12     4     5    1
    13     5     6    1
    14     6    24    1
    15    24    25    2
    16    24    26    2
    17    24    27    1
    18    27    28   ar
    19    28    29   ar
    20    29    30   ar
    21    30    31    1
    22    30    32   ar
    23    32    33   ar
    24     6     7    1
    25     7     8   ar
    26     8     9   ar
    27     9    10   ar
    28    10    34    1
    29    34    35    1
    30    34    36    1
    31    36    37    1
    32    36    38    1
    33    36    39    1
    34    34    40    1
    35    40    41    1
    36    40    42    1
    37    40    43    1
    38    10    11   ar
    39    11    12   ar
    40    12    13    1
    41    13    14    1
    42    15    14    1
    43    23    16    1
    44    15     3    1
    45    15     6    1
    46    33    27   ar
    47    12     7   ar
@<TRIPOS>MOLECULE
*****
 43 47 0 0 0
SMALL
GASTEIGER

@<TRIPOS>ATOM
      1 O          61.3644   87.5692   12.2465 O.2     1  UNL1       -0.2749
      2 C          61.5390   88.4568   11.0500 C.2     1  UNL1        0.2253
      3 N          62.5638   89.5521   11.0717 N.am    1  UNL1       -0.2791
      4 C          62.8505   90.5135    9.9566 C.3     1  UNL1        0.0955
      5 C          63.9457   91.4337   10.4082 C.3     1  UNL1        0.0496
      6 C          64.3357   91.0410   11.8023 C.3     1  UNL1        0.1514
      7 C          65.3583   91.5921   12.7514 C.ar    1  UNL1       -0.0046
      8 C          66.2123   92.7550   12.3412 C.ar    1  UNL1       -0.0032
      9 C          67.2348   93.3061   13.2903 C.ar    1  UNL1       -0.0015
     10 C          67.4033   92.6943   14.6494 C.ar    1  UNL1        0.0232
     11 C          66.5492   91.5314   15.0596 C.ar    1  UNL1       -0.0057
     12 C          65.5267   90.9803   14.1105 C.ar    1  UNL1       -0.0247
     13 C          64.6726   89.8174   14.5206 C.3     1  UNL1        0.0278
     14 C          63.6501   89.2663   13.5716 C.3     1  UNL1        0.0265
     15 C          63.4817   89.8781   12.2124 C.3     1  UNL1        0.1001
     16 C          60.6889   88.2494    9.8317 C.3     1  UNL1        0.0802
     17 C          60.2584   86.8656    9.4443 C.3     1  UNL1        0.0344
     18 C          59.4083   86.6581    8.2260 C.3     1  UNL1        0.1513
     19 S          58.9885   87.8344    7.3951 S.O2    1  UNL1       -0.0100
     20 O          58.3412   88.6254    6.2973 O.2     1  UNL1       -0.1730
     21 O          58.3334   86.7253    6.6265 O.2     1  UNL1       -0.1730
     22 C          59.4190   89.2180    7.7826 C.3     1  UNL1        0.1513
     23 C          60.2691   89.4256    9.0008 C.3     1  UNL1        0.0344
     24 S          65.1132   92.2012   11.2551 S.O2    1  UNL1        0.0106
     25 O          65.6839   91.8605   10.8150 O.2     1  UNL1       -0.1684
     26 O          64.2003   93.1512   11.9720 O.2     1  UNL1       -0.1684
     27 C          65.8907   93.3614   10.7079 C.ar    1  UNL1        0.1061
     28 C          65.4292   94.7642   10.9705 C.ar    1  UNL1        0.0207
     29 C          66.2067   95.9244   10.4233 C.ar    1  UNL1        0.0310
     30 C          67.4457   95.6817    9.6135 C.ar    1  UNL1        0.1402
     31 F          68.2233   96.8420    9.0662 F       1  UNL1       -0.2042
     32 C          67.9073   94.2789    9.3508 C.ar    1  UNL1        0.0310
     33 C          67.1298   93.1188    9.8980 C.ar    1  UNL1        0.0207
     34 C          68.4259   93.2455   15.5985 C.3     1  UNL1        0.3242
     35 F          67.3284   93.7504   16.4876 F       1  UNL1       -0.2176
     36 C          69.4483   93.7966   16.5475 C.3     1  UNL1        0.4363
     37 F          70.4709   94.3477   17.4966 F       1  UNL1       -0.1666
     38 F          68.9582   95.1865   16.2685 F       1  UNL1       -0.1666
     39 F          70.0595   92.4843   16.9402 F       1  UNL1       -0.1666
     40 C          69.5233   92.7405   14.7094 C.3     1  UNL1        0.4363
     41 F          70.6208   92.2355   13.8202 F       1  UNL1       -0.1666
     42 F          70.4364   93.9212   14.8574 F       1  UNL1       -0.1666
     43 F          69.0269   91.4038   14.2435 F       1  UNL1       -0.1666
@<TRIPOS>BOND
     1     1     2    2
     2     2    16    1
     3    16    17    1
     4    17    18    1
     5    18    19    1
     6    19    20    2
     7    19    21    2
     8    19    22    1
     9    22    23    1
    10     2     3   am
    11     3     4    1
    12     4     5    1
    13     5     6    1
    14     6    24    1
    15    24    25    2
    16    24    26    2
    17    24    27    1
    18    27    28   ar
    19    28    29   ar
    20    29    30   ar
    21    30    31    1
    22    30    32   ar
    23    32    33   ar
    24     6     7    1
    25     7     8   ar
    26     8     9   ar
    27     9    10   ar
    28    10    34    1
    29    34    35    1
    30    34    36    1
    31    36    37    1
    32    36    38    1
    33    36    39    1
    34    34    40    1
    35    40    41    1
    36    40    42    1
    37    40    43    1
    38    10    11   ar
    39    11    12   ar
    40    12    13    1
    41    13    14    1
    42    15    14    1
    43    23    16    1
    44    15     3    1
    45    15     6    1
    46    33    27   ar
    47    12     7   ar
