@<TRIPOS>MOLECULE
*****
 34 37 0 0 0
SMALL
GASTEIGER

@<TRIPOS>ATOM
      1 N          62.8567   90.7897   11.6642 N.am    1  UNL1       -0.2438
      2 C          63.3401   91.4415   10.4027 C.3     1  UNL1        0.1009
      3 C          64.5055   92.3849   10.4448 C.3     1  UNL1        0.0661
      4 C          65.1876   92.6765   11.7485 C.3     1  UNL1        0.1578
      5 O          64.7043   92.0247   13.0101 O.3     1  UNL1       -0.4375
      6 C          63.5389   91.0813   12.9680 C.2     1  UNL1        0.4051
      7 O          63.0556   90.4295   14.2295 O.2     1  UNL1       -0.2262
      8 C          66.0066   93.5329   10.8287 C.ar    1  UNL1        0.0139
      9 C          65.7087   94.9977   10.7041 C.ar    1  UNL1        0.0014
     10 C          66.5277   95.8540    9.7844 C.ar    1  UNL1        0.0294
     11 C          67.6446   95.2455    8.9893 C.ar    1  UNL1        0.1401
     12 F          68.4636   96.1019    8.0695 F       1  UNL1       -0.2042
     13 C          67.9425   93.7807    9.1138 C.ar    1  UNL1        0.0294
     14 C          67.1235   92.9243   10.0336 C.ar    1  UNL1        0.0014
     15 C          60.2918   90.3845   11.5816 C.3     1  UNL1        0.0265
     16 C          61.6913   89.8463   11.6221 C.3     1  UNL1        0.1011
     17 C          61.9255   88.3646   11.6205 C.ar    1  UNL1       -0.0042
     18 C          63.0506   87.7823   12.4234 C.ar    1  UNL1       -0.0027
     19 C          63.2847   86.3007   12.4218 C.ar    1  UNL1       -0.0003
     20 C          62.3936   85.4015   11.6172 C.ar    1  UNL1       -0.0000
     21 C          61.2684   85.9838   10.8143 C.ar    1  UNL1       -0.0003
     22 C          61.0343   87.4654   10.8159 C.ar    1  UNL1       -0.0027
     23 C          62.6277   83.9198   11.6156 C.ar    1  UNL1        0.0001
     24 C          63.3242   83.2718   10.4559 C.ar    1  UNL1        0.0023
     25 C          63.5584   81.7901   10.4543 C.ar    1  UNL1        0.0296
     26 C          63.0960   80.9565   11.6125 C.ar    1  UNL1        0.1401
     27 F          63.3301   79.4750   11.6109 F       1  UNL1       -0.2042
     28 C          62.3994   81.6046   12.7722 C.ar    1  UNL1        0.0296
     29 C          62.1654   83.0862   12.7738 C.ar    1  UNL1        0.0023
     30 C          66.1542   93.2655   12.7328 C.3     1  UNL1        0.0471
     31 C          66.5787   92.4728   13.9333 C.3     1  UNL1        0.0357
     32 C          68.0194   92.0953   14.1117 C.3     1  UNL1        0.1373
     33 O          68.8331   91.6617   12.9285 O.3     1  UNL1       -0.3820
     34 H          68.4863   90.8224   12.5876 H       1  UNL1        0.2104
@<TRIPOS>BOND
     1    16    15    1
     2    16    17    1
     3    17    18   ar
     4    18    19   ar
     5    19    20   ar
     6    20    23    1
     7    23    24   ar
     8    24    25   ar
     9    25    26   ar
    10    26    27    1
    11    26    28   ar
    12    28    29   ar
    13    20    21   ar
    14    21    22   ar
    15    16     1    1
    16     1     2    1
    17     2     3    1
    18     3     4    1
    19     4    30    1
    20    30    31    1
    21    31    32    1
    22    32    33    1
    23     4     8    1
    24     8     9   ar
    25     9    10   ar
    26    10    11   ar
    27    11    12    1
    28    11    13   ar
    29    13    14   ar
    30     4     5    1
    31     5     6    1
    32     6     7    2
    33    22    17   ar
    34     6     1   am
    35    29    23   ar
    36    14     8   ar
    37    33    34    1
@<TRIPOS>MOLECULE
*****
 34 37 0 0 0
SMALL
GASTEIGER

@<TRIPOS>ATOM
      1 N          63.3038   90.5122   11.8862 N.am    1  UNL1       -0.2438
      2 C          64.0458   90.4378   13.1877 C.3     1  UNL1        0.1009
      3 C          65.2472   91.3061   13.4168 C.3     1  UNL1        0.0661
      4 C          65.7067   92.2489   12.3444 C.3     1  UNL1        0.1578
      5 O          64.9647   92.3234   11.0429 O.3     1  UNL1       -0.4375
      6 C          63.7632   91.4550   10.8138 C.2     1  UNL1        0.4051
      7 O          63.0212   91.5294    9.5123 O.2     1  UNL1       -0.2262
      8 C          66.7319   92.5366   13.4009 C.ar    1  UNL1        0.0139
      9 C          66.4741   93.6008   14.4261 C.ar    1  UNL1        0.0014
     10 C          67.4994   93.8885   15.4826 C.ar    1  UNL1        0.0294
     11 C          68.7823   93.1120   15.5138 C.ar    1  UNL1        0.1401
     12 F          69.8076   93.3997   16.5704 F       1  UNL1       -0.2042
     13 C          69.0401   92.0478   14.4886 C.ar    1  UNL1        0.0294
     14 C          68.0149   91.7601   13.4321 C.ar    1  UNL1        0.0014
     15 C          60.7764   90.2674   11.3365 C.3     1  UNL1        0.0265
     16 C          62.1024   89.6438   11.6571 C.3     1  UNL1        0.1011
     17 C          62.2269   88.1518   11.7486 C.ar    1  UNL1       -0.0042
     18 C          63.1991   87.5380   12.7120 C.ar    1  UNL1       -0.0027
     19 C          63.3236   86.0460   12.8035 C.ar    1  UNL1       -0.0003
     20 C          62.4760   85.1678   11.9316 C.ar    1  UNL1       -0.0000
     21 C          61.5039   85.7815   10.9682 C.ar    1  UNL1       -0.0003
     22 C          61.3793   87.2735   10.8767 C.ar    1  UNL1       -0.0027
     23 C          62.6006   83.6757   12.0231 C.ar    1  UNL1        0.0001
     24 C          62.2789   82.9737   13.3091 C.ar    1  UNL1        0.0023
     25 C          62.4034   81.4817   13.4006 C.ar    1  UNL1        0.0296
     26 C          62.8498   80.6917   12.2061 C.ar    1  UNL1        0.1401
     27 F          62.9744   79.1997   12.2976 F       1  UNL1       -0.2042
     28 C          63.1715   81.3937   10.9202 C.ar    1  UNL1        0.0296
     29 C          63.0469   82.8857   10.8287 C.ar    1  UNL1        0.0023
     30 C          66.5222   93.2916   11.6389 C.3     1  UNL1        0.0471
     31 C          66.9162   93.0925   10.2054 C.3     1  UNL1        0.0357
     32 C          68.1943   92.3822    9.8706 C.3     1  UNL1        0.1373
     33 O          69.4861   93.1433    9.8272 O.3     1  UNL1       -0.3820
     34 H          69.4602   93.7830    9.0985 H       1  UNL1        0.2104
@<TRIPOS>BOND
     1    16    15    1
     2    16    17    1
     3    17    18   ar
     4    18    19   ar
     5    19    20   ar
     6    20    23    1
     7    23    24   ar
     8    24    25   ar
     9    25    26   ar
    10    26    27    1
    11    26    28   ar
    12    28    29   ar
    13    20    21   ar
    14    21    22   ar
    15    16     1    1
    16     1     2    1
    17     2     3    1
    18     3     4    1
    19     4    30    1
    20    30    31    1
    21    31    32    1
    22    32    33    1
    23     4     8    1
    24     8     9   ar
    25     9    10   ar
    26    10    11   ar
    27    11    12    1
    28    11    13   ar
    29    13    14   ar
    30     4     5    1
    31     5     6    1
    32     6     7    2
    33    22    17   ar
    34     6     1   am
    35    29    23   ar
    36    14     8   ar
    37    33    34    1
@<TRIPOS>MOLECULE
*****
 34 37 0 0 0
SMALL
GASTEIGER

@<TRIPOS>ATOM
      1 N          62.5436   87.9340   12.4651 N.am    1  UNL1       -0.2438
      2 C          62.1592   86.9072   11.4416 C.3     1  UNL1        0.1009
      3 C          62.6533   85.4969   11.5717 C.3     1  UNL1        0.0661
      4 C          63.5319   85.1134   12.7254 C.3     1  UNL1        0.1578
      5 O          63.9164   86.1403   13.7490 O.3     1  UNL1       -0.4375
      6 C          63.4222   87.5506   13.6189 C.2     1  UNL1        0.4051
      7 O          63.8067   88.5775   14.6424 O.2     1  UNL1       -0.2262
      8 C          63.4417   83.7943   12.0170 C.ar    1  UNL1        0.0139
      9 C          62.5442   82.7168   12.5496 C.ar    1  UNL1        0.0014
     10 C          62.4540   81.3977   11.8413 C.ar    1  UNL1        0.0294
     11 C          63.2613   81.1561   10.6003 C.ar    1  UNL1        0.1401
     12 F          63.1710   79.8369    9.8920 F       1  UNL1       -0.2042
     13 C          64.1587   82.2335   10.0677 C.ar    1  UNL1        0.0294
     14 C          64.2489   83.5527   10.7760 C.ar    1  UNL1        0.0014
     15 C          60.6366   89.6815   12.7092 C.3     1  UNL1        0.0265
     16 C          62.0495   89.3443   12.3350 C.3     1  UNL1        0.1011
     17 C          62.9683   90.4174   11.8307 C.ar    1  UNL1       -0.0042
     18 C          62.8650   90.8864   10.4097 C.ar    1  UNL1       -0.0027
     19 C          63.7838   91.9595    9.9054 C.ar    1  UNL1       -0.0003
     20 C          64.8059   92.5635   10.8222 C.ar    1  UNL1       -0.0000
     21 C          64.9092   92.0945   12.2432 C.ar    1  UNL1       -0.0003
     22 C          63.9904   91.0215   12.7474 C.ar    1  UNL1       -0.0027
     23 C          65.7247   93.6367   10.3178 C.ar    1  UNL1        0.0001
     24 C          67.0322   93.2669    9.6826 C.ar    1  UNL1        0.0023
     25 C          67.9510   94.3401    9.1782 C.ar    1  UNL1        0.0296
     26 C          67.5622   95.7829    9.3092 C.ar    1  UNL1        0.1401
     27 F          68.4810   96.8560    8.8049 F       1  UNL1       -0.2042
     28 C          66.2546   96.1525    9.9446 C.ar    1  UNL1        0.0296
     29 C          65.3359   95.0795   10.4488 C.ar    1  UNL1        0.0023
     30 C          64.3792   84.2719   13.6331 C.3     1  UNL1        0.0471
     31 C          64.1661   84.3211   15.1170 C.3     1  UNL1        0.0357
     32 C          62.7839   84.1762   15.6815 C.3     1  UNL1        0.1373
     33 O          62.0673   85.3755   16.2275 O.3     1  UNL1       -0.3820
     34 H          62.5315   85.6986   17.0156 H       1  UNL1        0.2104
@<TRIPOS>BOND
     1    16    15    1
     2    16    17    1
     3    17    18   ar
     4    18    19   ar
     5    19    20   ar
     6    20    23    1
     7    23    24   ar
     8    24    25   ar
     9    25    26   ar
    10    26    27    1
    11    26    28   ar
    12    28    29   ar
    13    20    21   ar
    14    21    22   ar
    15    16     1    1
    16     1     2    1
    17     2     3    1
    18     3     4    1
    19     4    30    1
    20    30    31    1
    21    31    32    1
    22    32    33    1
    23     4     8    1
    24     8     9   ar
    25     9    10   ar
    26    10    11   ar
    27    11    12    1
    28    11    13   ar
    29    13    14   ar
    30     4     5    1
    31     5     6    1
    32     6     7    2
    33    22    17   ar
    34     6     1   am
    35    29    23   ar
    36    14     8   ar
    37    33    34    1
@<TRIPOS>MOLECULE
*****
 34 37 0 0 0
SMALL
GASTEIGER

@<TRIPOS>ATOM
      1 N          62.1595   88.5690   11.1192 N.am    1  UNL1       -0.2438
      2 C          62.6632   87.5150   12.0601 C.3     1  UNL1        0.1009
      3 C          62.7307   86.0838   11.6163 C.3     1  UNL1        0.0661
      4 C          62.2946   85.7065   10.2316 C.3     1  UNL1        0.1578
      5 O          61.7909   86.7605    9.2906 O.3     1  UNL1       -0.4375
      6 C          61.7233   88.1918    9.7344 C.2     1  UNL1        0.4051
      7 O          61.2196   89.2458    8.7935 O.2     1  UNL1       -0.2262
      8 C          62.6952   84.3589   10.7547 C.ar    1  UNL1        0.0139
      9 C          63.5720   83.4644    9.9295 C.ar    1  UNL1        0.0014
     10 C          63.9726   82.1168   10.4527 C.ar    1  UNL1        0.0294
     11 C          63.4962   81.6639   11.8010 C.ar    1  UNL1        0.1401
     12 F          63.8968   80.3163   12.3241 F       1  UNL1       -0.2042
     13 C          62.6194   82.5584   12.6262 C.ar    1  UNL1        0.0294
     14 C          62.2188   83.9060   12.1030 C.ar    1  UNL1        0.0014
     15 C          60.8732   90.8217   11.2632 C.3     1  UNL1        0.0265
     16 C          62.0919   90.0003   11.5630 C.3     1  UNL1        0.1011
     17 C          63.2432   90.6101   12.3066 C.ar    1  UNL1       -0.0042
     18 C          64.1750   91.5524   11.6041 C.ar    1  UNL1       -0.0027
     19 C          65.3262   92.1622   12.3477 C.ar    1  UNL1       -0.0003
     20 C          65.5455   91.8296   13.7938 C.ar    1  UNL1       -0.0000
     21 C          64.6136   90.8872   14.4963 C.ar    1  UNL1       -0.0003
     22 C          63.4625   90.2775   13.7527 C.ar    1  UNL1       -0.0027
     23 C          66.6967   92.4394   14.5374 C.ar    1  UNL1        0.0001
     24 C          66.9242   93.9210   14.4832 C.ar    1  UNL1        0.0023
     25 C          68.0754   94.5308   15.2268 C.ar    1  UNL1        0.0296
     26 C          68.9992   93.6589   16.0246 C.ar    1  UNL1        0.1401
     27 F          70.1503   94.2686   16.7682 F       1  UNL1       -0.2042
     28 C          68.7716   92.1772   16.0788 C.ar    1  UNL1        0.0296
     29 C          67.6204   91.5674   15.3352 C.ar    1  UNL1        0.0023
     30 C          61.9976   84.8612    9.0285 C.3     1  UNL1        0.0471
     31 C          61.9685   85.4829    7.6638 C.3     1  UNL1        0.0357
     32 C          62.1778   84.6311    6.4470 C.3     1  UNL1        0.1373
     33 O          60.9962   84.1187    5.6780 O.3     1  UNL1       -0.3820
     34 H          60.4976   83.4951    6.2289 H       1  UNL1        0.2104
@<TRIPOS>BOND
     1    16    15    1
     2    16    17    1
     3    17    18   ar
     4    18    19   ar
     5    19    20   ar
     6    20    23    1
     7    23    24   ar
     8    24    25   ar
     9    25    26   ar
    10    26    27    1
    11    26    28   ar
    12    28    29   ar
    13    20    21   ar
    14    21    22   ar
    15    16     1    1
    16     1     2    1
    17     2     3    1
    18     3     4    1
    19     4    30    1
    20    30    31    1
    21    31    32    1
    22    32    33    1
    23     4     8    1
    24     8     9   ar
    25     9    10   ar
    26    10    11   ar
    27    11    12    1
    28    11    13   ar
    29    13    14   ar
    30     4     5    1
    31     5     6    1
    32     6     7    2
    33    22    17   ar
    34     6     1   am
    35    29    23   ar
    36    14     8   ar
    37    33    34    1
