@<TRIPOS>MOLECULE
*****
 35 38 0 0 0
SMALL
GASTEIGER

@<TRIPOS>ATOM
      1 C          63.8873   90.8099   11.9799 C.ar    1  UNL1        0.1534
      2 C          62.9628   90.8527   10.7995 C.ar    1  UNL1        0.0351
      3 C          62.1212   89.6577   10.4623 C.ar    1  UNL1        0.0722
      4 CL         61.1967   89.7005    9.2818 Cl      1  UNL1       -0.0809
      5 C          62.2041   88.4199   11.3055 C.ar    1  UNL1        0.0577
      6 C          63.1286   88.3771   12.4859 C.ar    1  UNL1        0.0462
      7 C          63.9702   89.5721   12.8231 C.ar    1  UNL1        0.1602
      8 F          64.8947   89.5293   14.0036 F       1  UNL1       -0.2027
      9 O          65.2656   92.0221   10.9166 O.2     1  UNL1       -0.1498
     10 S          64.7290   92.0049   12.3171 S.O2    1  UNL1        0.0772
     11 O          64.1923   91.9876   13.7177 O.2     1  UNL1       -0.1498
     12 N          65.5706   93.1998   12.6543 N.pl3   1  UNL1       -0.1936
     13 H          65.3947   94.0647   12.2182 H       1  UNL1        0.1758
     14 C          66.6804   93.0770   13.6561 C.ar    1  UNL1        0.1786
     15 N          66.9217   93.9905   14.8210 N.ar    1  UNL1       -0.2214
     16 C          68.1341   93.4971   15.5536 C.ar    1  UNL1        0.1079
     17 C          68.6421   92.2787   14.8414 C.ar    1  UNL1        0.0588
     18 S          67.7436   92.0190   13.6685 S.2     1  UNL1       -0.0497
     19 N          61.3625   87.2250   10.9682 N.pl3   1  UNL1       -0.3306
     20 H          60.7133   87.2727   10.2296 H       1  UNL1        0.1469
     21 C          61.5099   85.9572   11.7563 C.3     1  UNL1        0.1075
     22 C          62.5579   84.9543   11.3744 C.3     1  UNL1        0.0963
     23 N          62.6838   84.5072    9.9482 N.3     1  UNL1       -0.2935
     24 C          63.7318   83.5043    9.5664 C.3     1  UNL1        0.0735
     25 C          64.6538   82.9484   10.6108 C.3     1  UNL1        0.0428
     26 C          64.5279   83.3954   12.0370 C.2     1  UNL1       -0.0276
     27 C          63.4799   84.3984   12.4189 C.2     1  UNL1       -0.0106
     28 H          62.8602   85.3437    9.3919 H       1  UNL1        0.1236
     29 C          63.3540   84.8455   13.8452 C.ar    1  UNL1       -0.0028
     30 C          64.2334   85.9425   14.3677 C.ar    1  UNL1        0.0020
     31 C          64.1075   86.3896   15.7939 C.ar    1  UNL1        0.0296
     32 C          63.1021   85.7397   16.6977 C.ar    1  UNL1        0.1401
     33 F          62.9762   86.1868   18.1240 F       1  UNL1       -0.2042
     34 C          62.2226   84.6427   16.1752 C.ar    1  UNL1        0.0296
     35 C          62.3486   84.1956   14.7489 C.ar    1  UNL1        0.0020
@<TRIPOS>BOND
     1     9    10    2
     2    10    11    2
     3    10    12    1
     4    12    14    1
     5    14    15   ar
     6    15    16   ar
     7    16    17   ar
     8    17    18   ar
     9    10     1    1
    10     1     2   ar
    11     2     3   ar
    12     3     4    1
    13     3     5   ar
    14     5    19    1
    15    19    21    1
    16    22    21    1
    17    22    23    1
    18    23    24    1
    19    24    25    1
    20    25    26    1
    21    26    27    2
    22    27    29    1
    23    29    30   ar
    24    30    31   ar
    25    31    32   ar
    26    32    33    1
    27    32    34   ar
    28    34    35   ar
    29     5     6   ar
    30     6     7   ar
    31     7     8    1
    32    18    14   ar
    33     7     1   ar
    34    27    22    1
    35    35    29   ar
    36    12    13    1
    37    19    20    1
    38    23    28    1
@<TRIPOS>MOLECULE
*****
 35 38 0 0 0
SMALL
GASTEIGER

@<TRIPOS>ATOM
      1 C          63.8370   91.0069   11.7242 C.ar    1  UNL1        0.1534
      2 C          62.8844   90.9719   10.5662 C.ar    1  UNL1        0.0351
      3 C          62.0434   89.7538   10.3235 C.ar    1  UNL1        0.0722
      4 CL         61.0907   89.7186    9.1653 Cl      1  UNL1       -0.0809
      5 C          62.1551   88.5707   11.2388 C.ar    1  UNL1        0.0577
      6 C          63.1078   88.6058   12.3969 C.ar    1  UNL1        0.0462
      7 C          63.9487   89.8239   12.6396 C.ar    1  UNL1        0.1602
      8 F          64.9015   89.8590   13.7977 F       1  UNL1       -0.2027
      9 O          64.4759   92.0700   13.4451 O.2     1  UNL1       -0.1498
     10 S          64.6780   92.2251   11.9670 S.O2    1  UNL1        0.0772
     11 O          64.8802   92.3802   10.4888 O.2     1  UNL1       -0.1498
     12 N          65.5190   93.4432   12.2098 N.pl3   1  UNL1       -0.1936
     13 H          65.5255   93.8678   13.0979 H       1  UNL1        0.1758
     14 C          66.3501   94.0143   11.0993 C.ar    1  UNL1        0.1786
     15 N          67.4658   93.3131   10.3827 N.ar    1  UNL1       -0.2214
     16 C          68.0167   94.2524    9.3510 C.ar    1  UNL1        0.1079
     17 C          67.2414   95.5341    9.4299 C.ar    1  UNL1        0.0588
     18 S          66.2114   95.3870   10.5105 S.2     1  UNL1       -0.0497
     19 N          61.3141   87.3525   10.9961 N.pl3   1  UNL1       -0.3306
     20 H          60.6290   87.3603   10.2891 H       1  UNL1        0.1469
     21 C          61.5170   86.1226   11.8304 C.3     1  UNL1        0.1075
     22 C          62.5381   85.1013   11.4249 C.3     1  UNL1        0.0963
     23 N          62.6436   84.6747    9.9907 N.3     1  UNL1       -0.2935
     24 C          63.6646   83.6534    9.5852 C.3     1  UNL1        0.0735
     25 C          64.5800   83.0586   10.6139 C.3     1  UNL1        0.0428
     26 C          64.4745   83.4852   12.0481 C.2     1  UNL1       -0.0276
     27 C          63.4535   84.5065   12.4535 C.2     1  UNL1       -0.0106
     28 H          62.8363   85.5158    9.4468 H       1  UNL1        0.1236
     29 C          63.3479   84.9331   13.8878 C.ar    1  UNL1       -0.0028
     30 C          64.2198   86.0374   14.4079 C.ar    1  UNL1        0.0020
     31 C          64.1142   86.4640   15.8420 C.ar    1  UNL1        0.0296
     32 C          63.1368   85.7863   16.7561 C.ar    1  UNL1        0.1401
     33 F          63.0313   86.2130   18.1903 F       1  UNL1       -0.2042
     34 C          62.2650   84.6821   16.2360 C.ar    1  UNL1        0.0296
     35 C          62.3706   84.2555   14.8018 C.ar    1  UNL1        0.0020
@<TRIPOS>BOND
     1     9    10    2
     2    10    11    2
     3    10    12    1
     4    12    14    1
     5    14    15   ar
     6    15    16   ar
     7    16    17   ar
     8    17    18   ar
     9    10     1    1
    10     1     2   ar
    11     2     3   ar
    12     3     4    1
    13     3     5   ar
    14     5    19    1
    15    19    21    1
    16    22    21    1
    17    22    23    1
    18    23    24    1
    19    24    25    1
    20    25    26    1
    21    26    27    2
    22    27    29    1
    23    29    30   ar
    24    30    31   ar
    25    31    32   ar
    26    32    33    1
    27    32    34   ar
    28    34    35   ar
    29     5     6   ar
    30     6     7   ar
    31     7     8    1
    32    18    14   ar
    33     7     1   ar
    34    27    22    1
    35    35    29   ar
    36    12    13    1
    37    19    20    1
    38    23    28    1
@<TRIPOS>MOLECULE
*****
 35 38 0 0 0
SMALL
GASTEIGER

@<TRIPOS>ATOM
      1 C          63.3805   85.4334   15.2521 C.ar    1  UNL1        0.1534
      2 C          63.1179   86.3055   16.4439 C.ar    1  UNL1        0.0351
      3 C          63.4076   87.7756   16.3758 C.ar    1  UNL1        0.0722
      4 CL         63.1451   88.6479   17.5676 Cl      1  UNL1       -0.0809
      5 C          63.9598   88.3737   15.1158 C.ar    1  UNL1        0.0577
      6 C          64.2224   87.5015   13.9240 C.ar    1  UNL1        0.0462
      7 C          63.9327   86.0314   13.9922 C.ar    1  UNL1        0.1602
      8 F          64.1953   85.1591   12.8004 F       1  UNL1       -0.2027
      9 O          64.5624   83.6728   15.3118 O.2     1  UNL1       -0.1498
     10 S          63.0908   83.9631   15.3202 S.O2    1  UNL1        0.0772
     11 O          61.6192   84.2534   15.3287 O.2     1  UNL1       -0.1498
     12 N          62.8012   82.4929   15.3883 N.pl3   1  UNL1       -0.1936
     13 H          62.6512   82.0606   16.2600 H       1  UNL1        0.1758
     14 C          62.7401   81.6814   14.1283 C.ar    1  UNL1        0.1786
     15 N          62.6740   80.1851   14.0455 N.ar    1  UNL1       -0.2214
     16 C          62.6275   79.8026   12.5959 C.ar    1  UNL1        0.1079
     17 C          62.6647   81.0625   11.7826 C.ar    1  UNL1        0.0588
     18 S          62.7343   82.2237   12.7298 S.2     1  UNL1       -0.0497
     19 N          64.2495   89.8439   15.0477 N.pl3   1  UNL1       -0.3306
     20 H          64.9450   90.2358   15.6239 H       1  UNL1        0.1469
     21 C          63.4795   90.7170   14.1018 C.3     1  UNL1        0.1075
     22 C          64.1973   91.4612   13.0150 C.3     1  UNL1        0.0963
     23 N          65.3085   92.4072   13.3616 N.3     1  UNL1       -0.2935
     24 C          66.0262   93.1513   12.2748 C.3     1  UNL1        0.0735
     25 C          65.6328   92.9493   10.8415 C.3     1  UNL1        0.0428
     26 C          64.5216   92.0033   10.4949 C.2     1  UNL1       -0.0276
     27 C          63.8039   91.2592   11.5817 C.2     1  UNL1       -0.0106
     28 H          66.0127   91.8641   13.8611 H       1  UNL1        0.1236
     29 C          62.6926   90.3130   11.2352 C.ar    1  UNL1       -0.0028
     30 C          61.3025   90.8347   11.0220 C.ar    1  UNL1        0.0020
     31 C          60.1913   89.8887   10.6755 C.ar    1  UNL1        0.0296
     32 C          60.4701   88.4208   10.5422 C.ar    1  UNL1        0.1401
     33 F          59.3589   87.4747   10.1957 F       1  UNL1       -0.2042
     34 C          61.8602   87.8991   10.7554 C.ar    1  UNL1        0.0296
     35 C          62.9715   88.8452   11.1019 C.ar    1  UNL1        0.0020
@<TRIPOS>BOND
     1     9    10    2
     2    10    11    2
     3    10    12    1
     4    12    14    1
     5    14    15   ar
     6    15    16   ar
     7    16    17   ar
     8    17    18   ar
     9    10     1    1
    10     1     2   ar
    11     2     3   ar
    12     3     4    1
    13     3     5   ar
    14     5    19    1
    15    19    21    1
    16    22    21    1
    17    22    23    1
    18    23    24    1
    19    24    25    1
    20    25    26    1
    21    26    27    2
    22    27    29    1
    23    29    30   ar
    24    30    31   ar
    25    31    32   ar
    26    32    33    1
    27    32    34   ar
    28    34    35   ar
    29     5     6   ar
    30     6     7   ar
    31     7     8    1
    32    18    14   ar
    33     7     1   ar
    34    27    22    1
    35    35    29   ar
    36    12    13    1
    37    19    20    1
    38    23    28    1
@<TRIPOS>MOLECULE
*****
 35 38 0 0 0
SMALL
GASTEIGER

@<TRIPOS>ATOM
      1 C          63.7303   86.0678   13.8080 C.ar    1  UNL1        0.1534
      2 C          63.1275   86.4142   12.4789 C.ar    1  UNL1        0.0351
      3 C          62.9770   87.8510   12.0754 C.ar    1  UNL1        0.0722
      4 CL         62.3742   88.1976   10.7462 Cl      1  UNL1       -0.0809
      5 C          63.4291   88.9414   13.0010 C.ar    1  UNL1        0.0577
      6 C          64.0319   88.5949   14.3301 C.ar    1  UNL1        0.0462
      7 C          64.1824   87.1581   14.7336 C.ar    1  UNL1        0.1602
      8 F          64.7852   86.8116   16.0628 F       1  UNL1       -0.2027
      9 O          62.4074   84.5522   14.4812 O.2     1  UNL1       -0.1498
     10 S          63.8809   84.6309   14.2116 S.O2    1  UNL1        0.0772
     11 O          65.3543   84.7096   13.9421 O.2     1  UNL1       -0.1498
     12 N          64.0314   83.1941   14.6152 N.pl3   1  UNL1       -0.1936
     13 H          64.4821   82.9647   15.4599 H       1  UNL1        0.1758
     14 C          63.4954   82.1068   13.7317 C.ar    1  UNL1        0.1786
     15 N          62.8591   80.8292   14.1932 N.ar    1  UNL1       -0.2214
     16 C          62.4720   80.0390   12.9784 C.ar    1  UNL1        0.1079
     17 C          62.8690   80.8282   11.7661 C.ar    1  UNL1        0.0588
     18 S          63.5016   82.1062   12.2318 S.2     1  UNL1       -0.0497
     19 N          63.2785   90.3782   12.5974 N.pl3   1  UNL1       -0.3306
     20 H          62.3809   90.7715   12.5028 H       1  UNL1        0.1469
     21 C          64.4955   91.2159   12.3378 C.3     1  UNL1        0.1075
     22 C          65.2467   91.8231   13.4854 C.3     1  UNL1        0.0963
     23 N          64.7957   91.5721   14.8938 N.3     1  UNL1       -0.2935
     24 C          65.5470   92.1793   16.0413 C.3     1  UNL1        0.0735
     25 C          66.7493   93.0375   15.7804 C.3     1  UNL1        0.0428
     26 C          67.2003   93.2885   14.3721 C.2     1  UNL1       -0.0276
     27 C          66.4490   92.6813   13.2246 C.2     1  UNL1       -0.0106
     28 H          64.8123   90.5618   15.0327 H       1  UNL1        0.1236
     29 C          66.9000   92.9322   11.8161 C.ar    1  UNL1       -0.0028
     30 C          67.8841   92.0046   11.1672 C.ar    1  UNL1        0.0020
     31 C          68.3351   92.2555    9.7588 C.ar    1  UNL1        0.0296
     32 C          67.8020   93.4341    8.9992 C.ar    1  UNL1        0.1401
     33 F          68.2530   93.6850    7.5908 F       1  UNL1       -0.2042
     34 C          66.8179   94.3617    9.6481 C.ar    1  UNL1        0.0296
     35 C          66.3669   94.1108   11.0566 C.ar    1  UNL1        0.0020
@<TRIPOS>BOND
     1     9    10    2
     2    10    11    2
     3    10    12    1
     4    12    14    1
     5    14    15   ar
     6    15    16   ar
     7    16    17   ar
     8    17    18   ar
     9    10     1    1
    10     1     2   ar
    11     2     3   ar
    12     3     4    1
    13     3     5   ar
    14     5    19    1
    15    19    21    1
    16    22    21    1
    17    22    23    1
    18    23    24    1
    19    24    25    1
    20    25    26    1
    21    26    27    2
    22    27    29    1
    23    29    30   ar
    24    30    31   ar
    25    31    32   ar
    26    32    33    1
    27    32    34   ar
    28    34    35   ar
    29     5     6   ar
    30     6     7   ar
    31     7     8    1
    32    18    14   ar
    33     7     1   ar
    34    27    22    1
    35    35    29   ar
    36    12    13    1
    37    19    20    1
    38    23    28    1
@<TRIPOS>MOLECULE
*****
 35 38 0 0 0
SMALL
GASTEIGER

@<TRIPOS>ATOM
      1 C          65.0623   92.1335   12.0302 C.ar    1  UNL1        0.1534
      2 C          65.1462   91.2973   13.2727 C.ar    1  UNL1        0.0351
      3 C          64.1746   90.1752   13.4886 C.ar    1  UNL1        0.0722
      4 CL         64.2585   89.3389   14.7311 Cl      1  UNL1       -0.0809
      5 C          63.1190   89.8892   12.4620 C.ar    1  UNL1        0.0577
      6 C          63.0350   90.7253   11.2195 C.ar    1  UNL1        0.0462
      7 C          64.0067   91.8475   11.0037 C.ar    1  UNL1        0.1602
      8 F          63.9227   92.6837    9.7611 F       1  UNL1       -0.2027
      9 O          65.7439   93.7720   13.1924 O.2     1  UNL1       -0.1498
     10 S          66.0340   93.2557   11.8143 S.O2    1  UNL1        0.0772
     11 O          66.3241   92.7394   10.4362 O.2     1  UNL1       -0.1498
     12 N          67.0056   94.3778   11.5985 N.pl3   1  UNL1       -0.1936
     13 H          67.7114   94.5523   12.2622 H       1  UNL1        0.1758
     14 C          66.9018   95.2342   10.3713 C.ar    1  UNL1        0.1786
     15 N          67.8635   95.2457    9.2202 N.ar    1  UNL1       -0.2214
     16 C          67.3741   96.2480    8.2173 C.ar    1  UNL1        0.1079
     17 C          66.1099   96.8560    8.7485 C.ar    1  UNL1        0.0588
     18 S          65.8180   96.2294   10.0798 S.2     1  UNL1       -0.0497
     19 N          62.1473   88.7670   12.6779 N.pl3   1  UNL1       -0.3306
     20 H          61.3972   88.8793   13.3055 H       1  UNL1        0.1469
     21 C          62.3185   87.4738   11.9375 C.3     1  UNL1        0.1075
     22 C          61.6273   87.2651   10.6226 C.3     1  UNL1        0.0963
     23 N          60.8005   88.3657   10.0270 N.3     1  UNL1       -0.2935
     24 C          60.1094   88.1570    8.7122 C.3     1  UNL1        0.0735
     25 C          60.2451   86.8477    7.9930 C.3     1  UNL1        0.0428
     26 C          61.0720   85.7470    8.5887 C.2     1  UNL1       -0.0276
     27 C          61.7631   85.9557    9.9035 C.2     1  UNL1       -0.0106
     28 H          61.4188   89.1685    9.9104 H       1  UNL1        0.1236
     29 C          62.5900   84.8551   10.4992 C.ar    1  UNL1       -0.0028
     30 C          62.4523   84.5169   11.9541 C.ar    1  UNL1        0.0020
     31 C          63.2792   83.4163   12.5498 C.ar    1  UNL1        0.0296
     32 C          64.2438   82.6538   11.6906 C.ar    1  UNL1        0.1401
     33 F          65.0707   81.5532   12.2864 F       1  UNL1       -0.2042
     34 C          64.3816   82.9920   10.2357 C.ar    1  UNL1        0.0296
     35 C          63.5546   84.0926    9.6400 C.ar    1  UNL1        0.0020
@<TRIPOS>BOND
     1     9    10    2
     2    10    11    2
     3    10    12    1
     4    12    14    1
     5    14    15   ar
     6    15    16   ar
     7    16    17   ar
     8    17    18   ar
     9    10     1    1
    10     1     2   ar
    11     2     3   ar
    12     3     4    1
    13     3     5   ar
    14     5    19    1
    15    19    21    1
    16    22    21    1
    17    22    23    1
    18    23    24    1
    19    24    25    1
    20    25    26    1
    21    26    27    2
    22    27    29    1
    23    29    30   ar
    24    30    31   ar
    25    31    32   ar
    26    32    33    1
    27    32    34   ar
    28    34    35   ar
    29     5     6   ar
    30     6     7   ar
    31     7     8    1
    32    18    14   ar
    33     7     1   ar
    34    27    22    1
    35    35    29   ar
    36    12    13    1
    37    19    20    1
    38    23    28    1
@<TRIPOS>MOLECULE
*****
 35 38 0 0 0
SMALL
GASTEIGER

@<TRIPOS>ATOM
      1 C          62.5550   86.5243   11.6304 C.ar    1  UNL1        0.1534
      2 C          61.8365   87.4960   10.7418 C.ar    1  UNL1        0.0351
      3 C          61.9603   88.9704   10.9880 C.ar    1  UNL1        0.0722
      4 CL         61.2417   89.9421   10.0994 Cl      1  UNL1       -0.0809
      5 C          62.8027   89.4732   12.1226 C.ar    1  UNL1        0.0577
      6 C          63.5213   88.5016   13.0112 C.ar    1  UNL1        0.0462
      7 C          63.3974   87.0272   12.7651 C.ar    1  UNL1        0.1602
      8 F          64.1160   86.0555   13.6537 F       1  UNL1       -0.2027
      9 O          62.9121   85.2444    9.9769 O.2     1  UNL1       -0.1498
     10 S          62.4312   85.0498   11.3843 S.O2    1  UNL1        0.0772
     11 O          61.9502   84.8553   12.7917 O.2     1  UNL1       -0.1498
     12 N          62.3074   83.5754   11.1382 N.pl3   1  UNL1       -0.1936
     13 H          61.9090   83.2480   10.2995 H       1  UNL1        0.1758
     14 C          62.7906   82.5995   12.1699 C.ar    1  UNL1        0.1786
     15 N          61.9432   81.6082   12.9110 N.ar    1  UNL1       -0.2214
     16 C          62.8349   80.8397   13.8407 C.ar    1  UNL1        0.1079
     17 C          64.2334   81.3562   13.6743 C.ar    1  UNL1        0.0588
     18 S          64.2059   82.4439   12.6416 S.2     1  UNL1       -0.0497
     19 N          62.9266   90.9478   12.3687 N.pl3   1  UNL1       -0.3306
     20 H          62.1451   91.4634   12.6731 H       1  UNL1        0.1469
     21 C          64.2411   91.6367   12.1511 C.3     1  UNL1        0.1075
     22 C          65.0758   92.0486   13.3274 C.3     1  UNL1        0.0963
     23 N          64.6726   91.6397   14.7131 N.3     1  UNL1       -0.2935
     24 C          65.5074   92.0516   15.8893 C.3     1  UNL1        0.0735
     25 C          66.7454   92.8723   15.6798 C.3     1  UNL1        0.0428
     26 C          67.1486   93.2811   14.2941 C.2     1  UNL1       -0.0276
     27 C          66.3138   92.8693   13.1179 C.2     1  UNL1       -0.0106
     28 H          64.6361   90.6204   14.7204 H       1  UNL1        0.1236
     29 C          66.7170   93.2781   11.7321 C.ar    1  UNL1       -0.0028
     30 C          66.2645   94.5963   11.1775 C.ar    1  UNL1        0.0020
     31 C          66.6676   95.0052    9.7918 C.ar    1  UNL1        0.0296
     32 C          67.5233   94.0958    8.9605 C.ar    1  UNL1        0.1401
     33 F          67.9264   94.5046    7.5748 F       1  UNL1       -0.2042
     34 C          67.9758   92.7776    9.5151 C.ar    1  UNL1        0.0296
     35 C          67.5726   92.3687   10.9009 C.ar    1  UNL1        0.0020
@<TRIPOS>BOND
     1     9    10    2
     2    10    11    2
     3    10    12    1
     4    12    14    1
     5    14    15   ar
     6    15    16   ar
     7    16    17   ar
     8    17    18   ar
     9    10     1    1
    10     1     2   ar
    11     2     3   ar
    12     3     4    1
    13     3     5   ar
    14     5    19    1
    15    19    21    1
    16    22    21    1
    17    22    23    1
    18    23    24    1
    19    24    25    1
    20    25    26    1
    21    26    27    2
    22    27    29    1
    23    29    30   ar
    24    30    31   ar
    25    31    32   ar
    26    32    33    1
    27    32    34   ar
    28    34    35   ar
    29     5     6   ar
    30     6     7   ar
    31     7     8    1
    32    18    14   ar
    33     7     1   ar
    34    27    22    1
    35    35    29   ar
    36    12    13    1
    37    19    20    1
    38    23    28    1
@<TRIPOS>MOLECULE
*****
 35 38 0 0 0
SMALL
GASTEIGER

@<TRIPOS>ATOM
      1 C          63.2216   84.6864   15.1350 C.ar    1  UNL1        0.1534
      2 C          62.8974   85.4009   16.4134 C.ar    1  UNL1        0.0351
      3 C          63.2669   86.8451   16.5798 C.ar    1  UNL1        0.0722
      4 CL         62.9428   87.5597   17.8582 Cl      1  UNL1       -0.0809
      5 C          63.9605   87.5748   15.4678 C.ar    1  UNL1        0.0577
      6 C          64.2847   86.8602   14.1894 C.ar    1  UNL1        0.0462
      7 C          63.9152   85.4160   14.0230 C.ar    1  UNL1        0.1602
      8 F          64.2393   84.7014   12.7446 F       1  UNL1       -0.2027
      9 O          64.2291   82.8394   15.4060 O.2     1  UNL1       -0.1498
     10 S          62.8521   83.2421   14.9685 S.O2    1  UNL1        0.0772
     11 O          61.4750   83.6448   14.5311 O.2     1  UNL1       -0.1498
     12 N          62.4826   81.7979   14.8021 N.pl3   1  UNL1       -0.1936
     13 H          62.1537   81.2819   15.5733 H       1  UNL1        0.1758
     14 C          62.6144   81.1398   13.4606 C.ar    1  UNL1        0.1786
     15 N          62.3641   79.6916   13.1605 N.ar    1  UNL1       -0.2214
     16 C          62.6146   79.4712   11.6981 C.ar    1  UNL1        0.1079
     17 C          63.0199   80.7832   11.0943 C.ar    1  UNL1        0.0588
     18 S          63.0197   81.8145   12.1836 S.2     1  UNL1       -0.0497
     19 N          64.3300   89.0190   15.6343 N.pl3   1  UNL1       -0.3306
     20 H          65.1874   89.2628   16.0523 H       1  UNL1        0.1469
     21 C          63.3933   90.0919   15.1638 C.3     1  UNL1        0.1075
     22 C          63.3313   90.4480   13.7080 C.3     1  UNL1        0.0963
     23 N          62.1701   89.9948   12.8737 N.3     1  UNL1       -0.2935
     24 C          62.1082   90.3510   11.4180 C.3     1  UNL1        0.0735
     25 C          63.2076   91.1603   10.7965 C.3     1  UNL1        0.0428
     26 C          64.3688   91.6136   11.6307 C.2     1  UNL1       -0.0276
     27 C          64.4307   91.2574   13.0865 C.2     1  UNL1       -0.0106
     28 H          61.3295   90.3775   13.3065 H       1  UNL1        0.1236
     29 C          65.5920   91.7106   13.9208 C.ar    1  UNL1       -0.0028
     30 C          66.9849   91.6401   13.3687 C.ar    1  UNL1        0.0020
     31 C          68.1462   92.0933   14.2030 C.ar    1  UNL1        0.0296
     32 C          67.9146   92.6170   15.5894 C.ar    1  UNL1        0.1401
     33 F          69.0759   93.0702   16.4237 F       1  UNL1       -0.2042
     34 C          66.5217   92.6875   16.1415 C.ar    1  UNL1        0.0296
     35 C          65.3604   92.2343   15.3072 C.ar    1  UNL1        0.0020
@<TRIPOS>BOND
     1     9    10    2
     2    10    11    2
     3    10    12    1
     4    12    14    1
     5    14    15   ar
     6    15    16   ar
     7    16    17   ar
     8    17    18   ar
     9    10     1    1
    10     1     2   ar
    11     2     3   ar
    12     3     4    1
    13     3     5   ar
    14     5    19    1
    15    19    21    1
    16    22    21    1
    17    22    23    1
    18    23    24    1
    19    24    25    1
    20    25    26    1
    21    26    27    2
    22    27    29    1
    23    29    30   ar
    24    30    31   ar
    25    31    32   ar
    26    32    33    1
    27    32    34   ar
    28    34    35   ar
    29     5     6   ar
    30     6     7   ar
    31     7     8    1
    32    18    14   ar
    33     7     1   ar
    34    27    22    1
    35    35    29   ar
    36    12    13    1
    37    19    20    1
    38    23    28    1
@<TRIPOS>MOLECULE
*****
 35 38 0 0 0
SMALL
GASTEIGER

@<TRIPOS>ATOM
      1 C          64.2948   91.3892   11.7741 C.ar    1  UNL1        0.1534
      2 C          63.3585   91.3877   10.6022 C.ar    1  UNL1        0.0351
      3 C          62.2298   90.4014   10.5455 C.ar    1  UNL1        0.0722
      4 CL         61.2933   90.3999    9.3736 Cl      1  UNL1       -0.0809
      5 C          62.0374   89.4167   11.6605 C.ar    1  UNL1        0.0577
      6 C          62.9738   89.4182   12.8323 C.ar    1  UNL1        0.0462
      7 C          64.1025   90.4045   12.8891 C.ar    1  UNL1        0.1602
      8 F          65.0389   90.4061   14.0610 F       1  UNL1       -0.2027
      9 O          65.0169   92.7607   13.2224 O.2     1  UNL1       -0.1498
     10 S          65.4236   92.3755   11.8309 S.O2    1  UNL1        0.0772
     11 O          65.8302   91.9904   10.4394 O.2     1  UNL1       -0.1498
     12 N          66.5523   93.3618   11.8878 N.pl3   1  UNL1       -0.1936
     13 H          67.2193   93.3055   12.6097 H       1  UNL1        0.1758
     14 C          66.6648   94.4339   10.8447 C.ar    1  UNL1        0.1786
     15 N          67.7290   94.5319    9.7922 N.ar    1  UNL1       -0.2214
     16 C          67.4547   95.7548    8.9681 C.ar    1  UNL1        0.1079
     17 C          66.2208   96.4127    9.5112 C.ar    1  UNL1        0.0588
     18 S          65.7326   95.5963   10.6711 S.2     1  UNL1       -0.0497
     19 N          60.9086   88.4304   11.6036 N.pl3   1  UNL1       -0.3306
     20 H          59.9778   88.7491   11.5688 H       1  UNL1        0.1469
     21 C          61.1982   86.9586   11.5998 C.3     1  UNL1        0.1075
     22 C          61.6767   86.2916   10.3443 C.3     1  UNL1        0.0963
     23 N          61.2029   86.7806    9.0078 N.3     1  UNL1       -0.2935
     24 C          61.6814   86.1136    7.7525 C.3     1  UNL1        0.0735
     25 C          62.6338   84.9576    7.8336 C.3     1  UNL1        0.0428
     26 C          63.1076   84.4686    9.1701 C.2     1  UNL1       -0.0276
     27 C          62.6291   85.1356   10.4255 C.2     1  UNL1       -0.0106
     28 H          61.4724   87.7621    8.9409 H       1  UNL1        0.1236
     29 C          63.1029   84.6466   11.7621 C.ar    1  UNL1       -0.0028
     30 C          63.4901   85.6301   12.8264 C.ar    1  UNL1        0.0020
     31 C          63.9638   85.1412   14.1629 C.ar    1  UNL1        0.0296
     32 C          64.0505   83.6686   14.4352 C.ar    1  UNL1        0.1401
     33 F          64.5243   83.1797   15.7718 F       1  UNL1       -0.2042
     34 C          63.6633   82.6850   13.3710 C.ar    1  UNL1        0.0296
     35 C          63.1895   83.1740   12.0343 C.ar    1  UNL1        0.0020
@<TRIPOS>BOND
     1     9    10    2
     2    10    11    2
     3    10    12    1
     4    12    14    1
     5    14    15   ar
     6    15    16   ar
     7    16    17   ar
     8    17    18   ar
     9    10     1    1
    10     1     2   ar
    11     2     3   ar
    12     3     4    1
    13     3     5   ar
    14     5    19    1
    15    19    21    1
    16    22    21    1
    17    22    23    1
    18    23    24    1
    19    24    25    1
    20    25    26    1
    21    26    27    2
    22    27    29    1
    23    29    30   ar
    24    30    31   ar
    25    31    32   ar
    26    32    33    1
    27    32    34   ar
    28    34    35   ar
    29     5     6   ar
    30     6     7   ar
    31     7     8    1
    32    18    14   ar
    33     7     1   ar
    34    27    22    1
    35    35    29   ar
    36    12    13    1
    37    19    20    1
    38    23    28    1
@<TRIPOS>MOLECULE
*****
 35 38 0 0 0
SMALL
GASTEIGER

@<TRIPOS>ATOM
      1 C          63.7055   86.4713   14.4687 C.ar    1  UNL1        0.1534
      2 C          63.7166   87.4979   15.5623 C.ar    1  UNL1        0.0351
      3 C          63.5914   88.9541   15.2253 C.ar    1  UNL1        0.0722
      4 CL         63.6024   89.9807   16.3189 Cl      1  UNL1       -0.0809
      5 C          63.4552   89.3838   13.7946 C.ar    1  UNL1        0.0577
      6 C          63.4442   88.3573   12.7010 C.ar    1  UNL1        0.0462
      7 C          63.5693   86.9010   13.0381 C.ar    1  UNL1        0.1602
      8 F          63.5583   85.8744   11.9444 F       1  UNL1       -0.2027
      9 O          65.3094   85.0863   14.5645 O.2     1  UNL1       -0.1498
     10 S          63.8307   85.0150   14.8057 S.O2    1  UNL1        0.0772
     11 O          62.3520   84.9437   15.0470 O.2     1  UNL1       -0.1498
     12 N          63.9559   83.5587   15.1427 N.pl3   1  UNL1       -0.1936
     13 H          64.4023   83.2829   15.9757 H       1  UNL1        0.1758
     14 C          63.4010   82.5228   14.2106 C.ar    1  UNL1        0.1786
     15 N          62.4072   81.4573   14.5674 N.ar    1  UNL1       -0.2214
     16 C          62.1345   80.6465   13.3353 C.ar    1  UNL1        0.1079
     17 C          62.9596   81.2108   12.2169 C.ar    1  UNL1        0.0588
     18 S          63.7424   82.3705   12.7579 S.2     1  UNL1       -0.0497
     19 N          63.3301   90.8401   13.4576 N.pl3   1  UNL1       -0.3306
     20 H          62.4550   91.2867   13.5214 H       1  UNL1        0.1469
     21 C          64.5381   91.6160   13.0234 C.3     1  UNL1        0.1075
     22 C          65.5037   92.1356   14.0471 C.3     1  UNL1        0.0963
     23 N          65.2163   91.9560   15.5083 N.3     1  UNL1       -0.2935
     24 C          66.1818   92.4755   16.5319 C.3     1  UNL1        0.0735
     25 C          67.4347   93.1747   16.0943 C.3     1  UNL1        0.0428
     26 C          67.7221   93.3542   14.6331 C.2     1  UNL1       -0.0276
     27 C          66.7566   92.8347   13.6095 C.2     1  UNL1       -0.0106
     28 H          65.1274   90.9528   15.6698 H       1  UNL1        0.1236
     29 C          67.0439   93.0142   12.1482 C.ar    1  UNL1       -0.0028
     30 C          66.4702   94.1869   11.4096 C.ar    1  UNL1        0.0020
     31 C          66.7575   94.3665    9.9484 C.ar    1  UNL1        0.0296
     32 C          67.6186   93.3733    9.2257 C.ar    1  UNL1        0.1401
     33 F          67.9060   93.5529    7.7645 F       1  UNL1       -0.2042
     34 C          68.1924   92.2006    9.9644 C.ar    1  UNL1        0.0296
     35 C          67.9050   92.0211   11.4256 C.ar    1  UNL1        0.0020
@<TRIPOS>BOND
     1     9    10    2
     2    10    11    2
     3    10    12    1
     4    12    14    1
     5    14    15   ar
     6    15    16   ar
     7    16    17   ar
     8    17    18   ar
     9    10     1    1
    10     1     2   ar
    11     2     3   ar
    12     3     4    1
    13     3     5   ar
    14     5    19    1
    15    19    21    1
    16    22    21    1
    17    22    23    1
    18    23    24    1
    19    24    25    1
    20    25    26    1
    21    26    27    2
    22    27    29    1
    23    29    30   ar
    24    30    31   ar
    25    31    32   ar
    26    32    33    1
    27    32    34   ar
    28    34    35   ar
    29     5     6   ar
    30     6     7   ar
    31     7     8    1
    32    18    14   ar
    33     7     1   ar
    34    27    22    1
    35    35    29   ar
    36    12    13    1
    37    19    20    1
    38    23    28    1
