@<TRIPOS>MOLECULE
*****
 31 35 0 0 0
SMALL
GASTEIGER

@<TRIPOS>ATOM
      1 C          59.3633   90.5688    5.5979 C.ar    1  UNL1        0.1247
      2 N          60.8133   90.5153    5.2174 N.ar    1  UNL1       -0.2277
      3 C          61.0219   91.4399    4.0549 C.ar    1  UNL1        0.1329
      4 C          59.7009   92.0650    3.7169 C.ar    1  UNL1        0.0592
      5 N          58.6758   91.5266    4.6706 N.ar    1  UNL1       -0.3159
      6 C          57.2191   91.8833    4.6930 C.3     1  UNL1        0.1313
      7 C          59.3842   93.0561    2.6364 C.3     1  UNL1        0.0502
      8 C          60.3105   93.6668    1.6270 C.3     1  UNL1        0.0328
      9 C          61.7821   93.4374    1.4487 C.ar    1  UNL1       -0.0172
     10 C          62.3301   94.2512    0.3140 C.ar    1  UNL1        0.0134
     11 C          63.7869   94.1680   -0.0335 C.ar    1  UNL1        0.0652
     12 C          64.6957   93.2712    0.7537 C.ar    1  UNL1        0.0176
     13 C          64.1477   92.4574    1.8884 C.ar    1  UNL1        0.0044
     14 C          62.6910   92.5406    2.2359 C.ar    1  UNL1        0.0367
     15 C          62.3526   91.6516    3.3957 C.2     1  UNL1        0.2139
     16 O          63.4962   90.8711    3.9728 O.2     1  UNL1       -0.2849
     17 N          64.3350   94.9818   -1.1682 N.ar    1  UNL1       -0.2868
     18 C          65.1324   96.2460   -1.0420 C.ar    1  UNL1        0.1825
     19 N          65.4720   96.7197   -2.4241 N.ar    1  UNL1       -0.2280
     20 C          64.8845   95.7482   -3.4045 C.ar    1  UNL1        0.0786
     21 C          64.9826   95.8355   -4.8988 C.3     1  UNL1        0.0538
     22 C          64.1818   94.6741   -2.6283 C.ar    1  UNL1        0.0962
     23 C          58.7149   89.7996    6.7105 C.3     1  UNL1        0.0902
     24 C          61.1008   86.7876    9.0526 C.ar    1  UNL1        0.1387
     25 C          60.2569   86.3403    7.8960 C.ar    1  UNL1        0.0366
     26 C          59.4616   87.3443    7.1154 C.ar    1  UNL1       -0.0007
     27 C          59.5102   88.7956    7.4912 C.ar    1  UNL1       -0.0145
     28 C          60.3542   89.2430    8.6477 C.ar    1  UNL1       -0.0007
     29 C          61.1495   88.2390    9.4284 C.ar    1  UNL1        0.0366
     30 C          61.8717   85.8099   11.3329 C.3     1  UNL1        0.2525
     31 O          61.8961   85.7837    9.8332 O.3     1  UNL1       -0.4714
@<TRIPOS>BOND
     1    30    31    1
     2    31    24    1
     3    24    25   ar
     4    25    26   ar
     5    26    27   ar
     6    27    23    1
     7    23     1    1
     8     1     2   ar
     9     2     3   ar
    10     3     4   ar
    11     4     5   ar
    12     5     6    1
    13     4     7    1
    14     7     8    1
    15     8     9    1
    16     9    10   ar
    17    10    11   ar
    18    11    17    1
    19    17    18   ar
    20    18    19   ar
    21    19    20   ar
    22    20    21    1
    23    20    22   ar
    24    11    12   ar
    25    12    13   ar
    26    13    14   ar
    27    14    15    1
    28    15    16    2
    29    27    28   ar
    30    28    29   ar
    31    29    24   ar
    32     5     1   ar
    33    14     9   ar
    34    15     3    1
    35    22    17   ar
@<TRIPOS>MOLECULE
*****
 31 35 0 0 0
SMALL
GASTEIGER

@<TRIPOS>ATOM
      1 C          65.7035   93.4218   12.7704 C.ar    1  UNL1        0.1247
      2 N          64.8196   92.5771   11.9015 N.ar    1  UNL1       -0.2277
      3 C          64.6828   91.2310   12.5489 C.ar    1  UNL1        0.1329
      4 C          65.4822   91.2437   13.8181 C.ar    1  UNL1        0.0592
      5 N          66.1131   92.5977   13.9550 N.ar    1  UNL1       -0.3159
      6 C          66.9980   93.0485   15.0790 C.3     1  UNL1        0.1313
      7 C          65.6652   90.1418   14.8193 C.3     1  UNL1        0.0502
      8 C          65.0938   88.7551   14.7985 C.3     1  UNL1        0.0328
      9 C          64.1984   88.1276   13.7716 C.ar    1  UNL1       -0.0172
     10 C          63.8558   86.7130   14.1341 C.ar    1  UNL1        0.0134
     11 C          62.9679   85.9029   13.2367 C.ar    1  UNL1        0.0652
     12 C          62.4227   86.5073   11.9768 C.ar    1  UNL1        0.0176
     13 C          62.7654   87.9219   11.6142 C.ar    1  UNL1        0.0044
     14 C          63.6533   88.7320   12.5116 C.ar    1  UNL1        0.0367
     15 C          63.8688   90.1132   11.9675 C.2     1  UNL1        0.2139
     16 O          63.1792   90.4166   10.6705 O.2     1  UNL1       -0.2849
     17 N          62.6252   84.4882   13.5993 N.ar    1  UNL1       -0.2868
     18 C          62.0851   84.0223   14.9188 C.ar    1  UNL1        0.1825
     19 N          61.8885   82.5373   14.8409 N.ar    1  UNL1       -0.2280
     20 C          62.3072   82.0854   13.4732 C.ar    1  UNL1        0.0786
     21 C          62.2760   80.6753   12.9626 C.3     1  UNL1        0.0538
     22 C          62.7625   83.2911   12.7059 C.ar    1  UNL1        0.0962
     23 C          66.1070   94.8413   12.5019 C.3     1  UNL1        0.0902
     24 C          66.3408   96.3520    8.2695 C.ar    1  UNL1        0.1387
     25 C          65.2661   96.8552    9.1872 C.ar    1  UNL1        0.0366
     26 C          65.1883   96.3515   10.5979 C.ar    1  UNL1       -0.0007
     27 C          66.1849   95.3449   11.0911 C.ar    1  UNL1       -0.0145
     28 C          67.2596   94.8417   10.1734 C.ar    1  UNL1       -0.0007
     29 C          67.3375   95.3453    8.7627 C.ar    1  UNL1        0.0366
     30 C          65.2093   96.7961    5.9733 C.3     1  UNL1        0.2525
     31 O          66.4187   96.8556    6.8587 O.3     1  UNL1       -0.4714
@<TRIPOS>BOND
     1    30    31    1
     2    31    24    1
     3    24    25   ar
     4    25    26   ar
     5    26    27   ar
     6    27    23    1
     7    23     1    1
     8     1     2   ar
     9     2     3   ar
    10     3     4   ar
    11     4     5   ar
    12     5     6    1
    13     4     7    1
    14     7     8    1
    15     8     9    1
    16     9    10   ar
    17    10    11   ar
    18    11    17    1
    19    17    18   ar
    20    18    19   ar
    21    19    20   ar
    22    20    21    1
    23    20    22   ar
    24    11    12   ar
    25    12    13   ar
    26    13    14   ar
    27    14    15    1
    28    15    16    2
    29    27    28   ar
    30    28    29   ar
    31    29    24   ar
    32     5     1   ar
    33    14     9   ar
    34    15     3    1
    35    22    17   ar
@<TRIPOS>MOLECULE
*****
 31 35 0 0 0
SMALL
GASTEIGER

@<TRIPOS>ATOM
      1 C          63.8317   90.4958   13.0159 C.ar    1  UNL1        0.1247
      2 N          64.3515   89.3844   13.8788 N.ar    1  UNL1       -0.2277
      3 C          63.8639   88.0864   13.3066 C.ar    1  UNL1        0.1329
      4 C          63.0428   88.3956   12.0900 C.ar    1  UNL1        0.0592
      5 N          63.0229   89.8846   11.9103 N.ar    1  UNL1       -0.3159
      6 C          62.3180   90.6315   10.8171 C.3     1  UNL1        0.1313
      7 C          62.3386   87.4428   11.1700 C.3     1  UNL1        0.0502
      8 C          62.2816   85.9455   11.2396 C.3     1  UNL1        0.0328
      9 C          62.9147   85.0311   12.2461 C.ar    1  UNL1       -0.0172
     10 C          62.6082   83.5931   11.9493 C.ar    1  UNL1        0.0134
     11 C          63.1481   82.5123   12.8382 C.ar    1  UNL1        0.0652
     12 C          63.9946   82.8694   14.0239 C.ar    1  UNL1        0.0176
     13 C          64.3012   84.3074   14.3207 C.ar    1  UNL1        0.0044
     14 C          63.7612   85.3883   13.4318 C.ar    1  UNL1        0.0367
     15 C          64.1836   86.7480   13.9037 C.2     1  UNL1        0.2139
     16 O          65.0389   86.7726   15.1358 O.2     1  UNL1       -0.2849
     17 N          62.8416   81.0742   12.5415 N.ar    1  UNL1       -0.2868
     18 C          62.2842   80.0735   13.5099 C.ar    1  UNL1        0.1825
     19 N          62.1368   78.7652   12.7911 N.ar    1  UNL1       -0.2280
     20 C          62.6030   78.9573   11.3784 C.ar    1  UNL1        0.0786
     21 C          62.6290   77.9069   10.3079 C.3     1  UNL1        0.0538
     22 C          63.0386   80.3844   11.2241 C.ar    1  UNL1        0.0962
     23 C          64.0776   91.9610   13.2224 C.3     1  UNL1        0.0902
     24 C          66.9716   94.1535   10.5640 C.ar    1  UNL1        0.1387
     25 C          66.0986   93.0752    9.9938 C.ar    1  UNL1        0.0366
     26 C          65.1340   92.3444   10.8800 C.ar    1  UNL1       -0.0007
     27 C          65.0423   92.6918   12.3363 C.ar    1  UNL1       -0.0145
     28 C          65.9153   93.7702   12.9065 C.ar    1  UNL1       -0.0007
     29 C          66.8800   94.5010   12.0204 C.ar    1  UNL1        0.0366
     30 C          67.4325   95.6446    8.4869 C.3     1  UNL1        0.2525
     31 O          67.9363   94.8844    9.6779 O.3     1  UNL1       -0.4714
@<TRIPOS>BOND
     1    30    31    1
     2    31    24    1
     3    24    25   ar
     4    25    26   ar
     5    26    27   ar
     6    27    23    1
     7    23     1    1
     8     1     2   ar
     9     2     3   ar
    10     3     4   ar
    11     4     5   ar
    12     5     6    1
    13     4     7    1
    14     7     8    1
    15     8     9    1
    16     9    10   ar
    17    10    11   ar
    18    11    17    1
    19    17    18   ar
    20    18    19   ar
    21    19    20   ar
    22    20    21    1
    23    20    22   ar
    24    11    12   ar
    25    12    13   ar
    26    13    14   ar
    27    14    15    1
    28    15    16    2
    29    27    28   ar
    30    28    29   ar
    31    29    24   ar
    32     5     1   ar
    33    14     9   ar
    34    15     3    1
    35    22    17   ar
@<TRIPOS>MOLECULE
*****
 31 35 0 0 0
SMALL
GASTEIGER

@<TRIPOS>ATOM
      1 C          63.7504   89.6274   14.2408 C.ar    1  UNL1        0.1247
      2 N          64.1399   88.3115   14.8465 N.ar    1  UNL1       -0.2277
      3 C          63.7857   87.2290   13.8705 C.ar    1  UNL1        0.1329
      4 C          63.1773   87.8758   12.6615 C.ar    1  UNL1        0.0592
      5 N          63.1556   89.3580   12.8904 N.ar    1  UNL1       -0.3159
      6 C          62.6310   90.3899   11.9364 C.3     1  UNL1        0.1313
      7 C          62.6614   87.2249   11.4125 C.3     1  UNL1        0.0502
      8 C          62.6264   85.7664   11.0640 C.3     1  UNL1        0.0328
      9 C          63.0986   84.5985   11.8783 C.ar    1  UNL1       -0.0172
     10 C          62.8789   83.3023   11.1563 C.ar    1  UNL1        0.0134
     11 C          63.2831   82.0083   11.7983 C.ar    1  UNL1        0.0652
     12 C          63.9070   82.0106   13.1624 C.ar    1  UNL1        0.0176
     13 C          64.1267   83.3068   13.8844 C.ar    1  UNL1        0.0044
     14 C          63.7226   84.6008   13.2424 C.ar    1  UNL1        0.0367
     15 C          64.0283   85.7715   14.1290 C.2     1  UNL1        0.2139
     16 O          64.6603   85.4409   15.4486 O.2     1  UNL1       -0.2849
     17 N          63.0633   80.7119   11.0762 N.ar    1  UNL1       -0.2868
     18 C          62.8856   80.5463    9.5961 C.ar    1  UNL1        0.1825
     19 N          62.6951   79.0857    9.3127 N.ar    1  UNL1       -0.2280
     20 C          62.7552   78.3486   10.6178 C.ar    1  UNL1        0.0786
     21 C          62.6127   76.8666   10.8007 C.3     1  UNL1        0.0538
     22 C          62.9827   79.3537   11.7077 C.ar    1  UNL1        0.0962
     23 C          63.9253   90.9757   14.8743 C.3     1  UNL1        0.0902
     24 C          68.0039   92.8690   15.0472 C.ar    1  UNL1        0.1387
     25 C          67.0798   92.9698   16.2244 C.ar    1  UNL1        0.0366
     26 C          65.7202   92.3387   16.1667 C.ar    1  UNL1       -0.0007
     27 C          65.2848   91.6068   14.9320 C.ar    1  UNL1       -0.0145
     28 C          66.2089   91.5060   13.7547 C.ar    1  UNL1       -0.0007
     29 C          67.5685   92.1371   13.8123 C.ar    1  UNL1        0.0366
     30 C          69.6425   94.5912   16.0957 C.3     1  UNL1        0.2525
     31 O          69.3635   93.5001   15.1048 O.3     1  UNL1       -0.4714
@<TRIPOS>BOND
     1    30    31    1
     2    31    24    1
     3    24    25   ar
     4    25    26   ar
     5    26    27   ar
     6    27    23    1
     7    23     1    1
     8     1     2   ar
     9     2     3   ar
    10     3     4   ar
    11     4     5   ar
    12     5     6    1
    13     4     7    1
    14     7     8    1
    15     8     9    1
    16     9    10   ar
    17    10    11   ar
    18    11    17    1
    19    17    18   ar
    20    18    19   ar
    21    19    20   ar
    22    20    21    1
    23    20    22   ar
    24    11    12   ar
    25    12    13   ar
    26    13    14   ar
    27    14    15    1
    28    15    16    2
    29    27    28   ar
    30    28    29   ar
    31    29    24   ar
    32     5     1   ar
    33    14     9   ar
    34    15     3    1
    35    22    17   ar
@<TRIPOS>MOLECULE
*****
 31 35 0 0 0
SMALL
GASTEIGER

@<TRIPOS>ATOM
      1 C          62.6354   85.1239   14.2276 C.ar    1  UNL1        0.1247
      2 N          62.3570   85.8817   12.9633 N.ar    1  UNL1       -0.2277
      3 C          63.0601   87.2038   13.0509 C.ar    1  UNL1        0.1329
      4 C          63.7731   87.2631   14.3693 C.ar    1  UNL1        0.0592
      5 N          63.5106   85.9777   15.0965 N.ar    1  UNL1       -0.3159
      6 C          64.0318   85.6105   16.4542 C.3     1  UNL1        0.1313
      7 C          64.6147   88.3718   14.9284 C.3     1  UNL1        0.0502
      8 C          64.9510   89.6950   14.3072 C.3     1  UNL1        0.0328
      9 C          64.5289   90.2365   12.9735 C.ar    1  UNL1       -0.0172
     10 C          65.0885   91.6078   12.7367 C.ar    1  UNL1        0.0134
     11 C          64.7854   92.3310   11.4580 C.ar    1  UNL1        0.0652
     12 C          63.9227   91.6828   10.4161 C.ar    1  UNL1        0.0176
     13 C          63.3631   90.3114   10.6529 C.ar    1  UNL1        0.0044
     14 C          63.6662   89.5882   11.9315 C.ar    1  UNL1        0.0367
     15 C          63.0126   88.2386   11.9660 C.2     1  UNL1        0.2139
     16 O          62.2045   87.8757   10.7555 O.2     1  UNL1       -0.2849
     17 N          65.3450   93.7025   11.2212 N.ar    1  UNL1       -0.2868
     18 C          66.0418   94.5580   12.2373 C.ar    1  UNL1        0.1825
     19 N          66.4334   95.8434   11.5708 N.ar    1  UNL1       -0.2280
     20 C          65.9786   95.7824   10.1426 C.ar    1  UNL1        0.0786
     21 C          66.1640   96.8560    9.1116 C.3     1  UNL1        0.0538
     22 C          65.3059   94.4592    9.9266 C.ar    1  UNL1        0.0962
     23 C          62.1276   83.7531   14.5637 C.3     1  UNL1        0.0902
     24 C          62.8307   80.3340   11.7238 C.ar    1  UNL1        0.1387
     25 C          63.0930   81.7429   11.2809 C.ar    1  UNL1        0.0366
     26 C          62.8586   82.8826   12.2276 C.ar    1  UNL1       -0.0007
     27 C          62.3620   82.6134   13.6171 C.ar    1  UNL1       -0.0145
     28 C          62.0997   81.2045   14.0601 C.ar    1  UNL1       -0.0007
     29 C          62.3340   80.0648   13.1134 C.ar    1  UNL1        0.0366
     30 C          62.6178   79.3011    9.3494 C.3     1  UNL1        0.2525
     31 O          63.0651   79.1943   10.7772 O.3     1  UNL1       -0.4714
@<TRIPOS>BOND
     1    30    31    1
     2    31    24    1
     3    24    25   ar
     4    25    26   ar
     5    26    27   ar
     6    27    23    1
     7    23     1    1
     8     1     2   ar
     9     2     3   ar
    10     3     4   ar
    11     4     5   ar
    12     5     6    1
    13     4     7    1
    14     7     8    1
    15     8     9    1
    16     9    10   ar
    17    10    11   ar
    18    11    17    1
    19    17    18   ar
    20    18    19   ar
    21    19    20   ar
    22    20    21    1
    23    20    22   ar
    24    11    12   ar
    25    12    13   ar
    26    13    14   ar
    27    14    15    1
    28    15    16    2
    29    27    28   ar
    30    28    29   ar
    31    29    24   ar
    32     5     1   ar
    33    14     9   ar
    34    15     3    1
    35    22    17   ar
@<TRIPOS>MOLECULE
*****
 31 35 0 0 0
SMALL
GASTEIGER

@<TRIPOS>ATOM
      1 C          62.7360   94.5831   -0.1961 C.ar    1  UNL1        0.1247
      2 N          61.3780   94.4325    0.4231 N.ar    1  UNL1       -0.2277
      3 C          61.4902   93.4537    1.5541 C.ar    1  UNL1        0.1329
      4 C          62.9175   92.9992    1.6340 C.ar    1  UNL1        0.0592
      5 N          63.6874   93.6972    0.5523 N.ar    1  UNL1       -0.3159
      6 C          65.1516   93.5375    0.2687 C.3     1  UNL1        0.1313
      7 C          63.5372   92.0266    2.5932 C.3     1  UNL1        0.0502
      8 C          62.8824   91.2683    3.7096 C.3     1  UNL1        0.0328
      9 C          61.4465   91.2952    4.1425 C.ar    1  UNL1       -0.0172
     10 C          61.2084   90.3821    5.3084 C.ar    1  UNL1        0.0134
     11 C          59.8344   90.2610    5.8978 C.ar    1  UNL1        0.0652
     12 C          58.6985   91.0529    5.3211 C.ar    1  UNL1        0.0176
     13 C          58.9365   91.9659    4.1552 C.ar    1  UNL1        0.0044
     14 C          60.3105   92.0871    3.5658 C.ar    1  UNL1        0.0367
     15 C          60.3301   93.0477    2.4139 C.2     1  UNL1        0.2139
     16 O          59.0155   93.6869    2.0772 O.2     1  UNL1       -0.2849
     17 N          59.5962   89.3478    7.0638 N.ar    1  UNL1       -0.2868
     18 C          58.6956   88.1484    7.0749 C.ar    1  UNL1        0.1825
     19 N          58.7597   87.5332    8.4414 N.ar    1  UNL1       -0.2280
     20 C          59.7000   88.3524    9.2750 C.ar    1  UNL1        0.0786
     21 C          60.0600   88.0953   10.7082 C.3     1  UNL1        0.0538
     22 C          60.2170   89.4739    8.4236 C.ar    1  UNL1        0.0962
     23 C          63.0816   95.4647   -1.3594 C.3     1  UNL1        0.0902
     24 C          64.7513   93.6633   -5.1299 C.ar    1  UNL1        0.1387
     25 C          63.9095   92.8300   -4.2095 C.ar    1  UNL1        0.0366
     26 C          63.3530   93.4306   -2.9527 C.ar    1  UNL1       -0.0007
     27 C          63.6382   94.8642   -2.6162 C.ar    1  UNL1       -0.0145
     28 C          64.4799   95.6975   -3.5366 C.ar    1  UNL1       -0.0007
     29 C          65.0365   95.0971   -4.7935 C.ar    1  UNL1        0.0366
     30 C          65.1790   91.5891   -6.6349 C.3     1  UNL1        0.2525
     31 O          65.3079   93.0629   -6.3868 O.3     1  UNL1       -0.4714
@<TRIPOS>BOND
     1    30    31    1
     2    31    24    1
     3    24    25   ar
     4    25    26   ar
     5    26    27   ar
     6    27    23    1
     7    23     1    1
     8     1     2   ar
     9     2     3   ar
    10     3     4   ar
    11     4     5   ar
    12     5     6    1
    13     4     7    1
    14     7     8    1
    15     8     9    1
    16     9    10   ar
    17    10    11   ar
    18    11    17    1
    19    17    18   ar
    20    18    19   ar
    21    19    20   ar
    22    20    21    1
    23    20    22   ar
    24    11    12   ar
    25    12    13   ar
    26    13    14   ar
    27    14    15    1
    28    15    16    2
    29    27    28   ar
    30    28    29   ar
    31    29    24   ar
    32     5     1   ar
    33    14     9   ar
    34    15     3    1
    35    22    17   ar
