@<TRIPOS>MOLECULE
*****
 20 21 0 0 0
SMALL
GASTEIGER

@<TRIPOS>ATOM
      1 C          62.1209   86.7640   10.9737 C.3     1  UNL1        0.1594
      2 C          59.5179   87.2366    9.5590 C.3     1  UNL1        0.0308
      3 C          60.6023   86.4452    8.8898 C.ar    1  UNL1       -0.0232
      4 C          60.3853   85.8901    7.5133 C.ar    1  UNL1       -0.0045
      5 C          61.4697   85.0988    6.8442 C.ar    1  UNL1       -0.0003
      6 C          62.7712   84.8625    7.5515 C.ar    1  UNL1       -0.0003
      7 C          62.9882   85.4176    8.9279 C.ar    1  UNL1       -0.0019
      8 C          61.9038   86.2089    9.5971 C.ar    1  UNL1        0.0048
      9 C          62.5571   88.1885   11.1477 C.ar    1  UNL1        0.0087
     10 C          63.1732   88.6315   12.4417 C.ar    1  UNL1       -0.0016
     11 C          63.6094   90.0561   12.6157 C.ar    1  UNL1       -0.0002
     12 C          63.4295   91.0377   11.4959 C.ar    1  UNL1       -0.0000
     13 C          62.8134   90.5948   10.2020 C.ar    1  UNL1       -0.0002
     14 C          62.3772   89.1702   10.0279 C.ar    1  UNL1       -0.0016
     15 O          61.9018   85.8945   12.1761 O.3     1  UNL1       -0.3460
     16 C          62.9935   84.9819   12.6508 C.3     1  UNL1        0.1602
     17 C          62.7440   83.5068   12.7589 C.3     1  UNL1        0.1047
     18 N          62.3900   82.9013   14.0849 N.3     1  UNL1       -0.2682
     19 C          62.6815   83.6485   15.3524 C.3     1  UNL1        0.0897
     20 C          61.7444   81.5486   14.1433 C.3     1  UNL1        0.0897
@<TRIPOS>BOND
     1     2     3    1
     2     3     4   ar
     3     4     5   ar
     4     5     6   ar
     5     6     7   ar
     6     7     8   ar
     7     8     1    1
     8     1    15    1
     9    15    16    1
    10    16    17    1
    11    17    18    1
    12    18    19    1
    13    18    20    1
    14     1     9    1
    15     9    10   ar
    16    10    11   ar
    17    11    12   ar
    18    12    13   ar
    19    13    14   ar
    20     8     3   ar
    21    14     9   ar
@<TRIPOS>MOLECULE
*****
 20 21 0 0 0
SMALL
GASTEIGER

@<TRIPOS>ATOM
      1 C          62.1339   86.7508   10.9712 C.3     1  UNL1        0.1594
      2 C          59.5347   87.2362    9.5540 C.3     1  UNL1        0.0308
      3 C          60.6165   86.4411    8.8852 C.ar    1  UNL1       -0.0232
      4 C          60.3988   85.8886    7.5077 C.ar    1  UNL1       -0.0045
      5 C          61.4806   85.0934    6.8389 C.ar    1  UNL1       -0.0003
      6 C          62.7802   84.8507    7.5475 C.ar    1  UNL1       -0.0003
      7 C          62.9979   85.4031    8.9249 C.ar    1  UNL1       -0.0019
      8 C          61.9161   86.1983    9.5937 C.ar    1  UNL1        0.0048
      9 C          62.5679   88.1757   11.1479 C.ar    1  UNL1        0.0087
     10 C          62.3796   89.1609   10.0324 C.ar    1  UNL1       -0.0016
     11 C          62.8136   90.5858   10.2091 C.ar    1  UNL1       -0.0002
     12 C          63.4359   91.0256   11.5011 C.ar    1  UNL1       -0.0000
     13 C          63.6242   90.0405   12.6165 C.ar    1  UNL1       -0.0002
     14 C          63.1902   88.6155   12.4399 C.ar    1  UNL1       -0.0016
     15 O          61.9177   85.8783   12.1721 O.3     1  UNL1       -0.3460
     16 C          63.0124   84.9683   12.6448 C.3     1  UNL1        0.1602
     17 C          62.7652   83.4930   12.7570 C.3     1  UNL1        0.1047
     18 N          62.3981   82.8927   14.0817 N.3     1  UNL1       -0.2682
     19 C          61.7619   81.5355   14.1396 C.3     1  UNL1        0.0897
     20 C          62.6673   83.6495   15.3485 C.3     1  UNL1        0.0897
@<TRIPOS>BOND
     1     2     3    1
     2     3     4   ar
     3     4     5   ar
     4     5     6   ar
     5     6     7   ar
     6     7     8   ar
     7     8     1    1
     8     1    15    1
     9    15    16    1
    10    16    17    1
    11    17    18    1
    12    18    19    1
    13    18    20    1
    14     1     9    1
    15     9    10   ar
    16    10    11   ar
    17    11    12   ar
    18    12    13   ar
    19    13    14   ar
    20     8     3   ar
    21    14     9   ar
@<TRIPOS>MOLECULE
*****
 20 21 0 0 0
SMALL
GASTEIGER

@<TRIPOS>ATOM
      1 C          61.7783   87.0960   11.0732 C.3     1  UNL1        0.1594
      2 C          63.1598   85.4120    9.0102 C.3     1  UNL1        0.0308
      3 C          61.7796   85.9373    8.7478 C.ar    1  UNL1       -0.0232
      4 C          61.0900   85.6206    7.4539 C.ar    1  UNL1       -0.0045
      5 C          59.7098   86.1460    7.1914 C.ar    1  UNL1       -0.0003
      6 C          59.0190   86.9879    8.2228 C.ar    1  UNL1       -0.0003
      7 C          59.7085   87.3046    9.5167 C.ar    1  UNL1       -0.0019
      8 C          61.0888   86.7793    9.7792 C.ar    1  UNL1        0.0048
      9 C          62.4441   88.4267   11.2622 C.ar    1  UNL1        0.0087
     10 C          62.4080   89.4464   10.1625 C.ar    1  UNL1       -0.0016
     11 C          63.0738   90.7771   10.3515 C.ar    1  UNL1       -0.0002
     12 C          63.7758   91.0883   11.6400 C.ar    1  UNL1       -0.0000
     13 C          63.8120   90.0688   12.7396 C.ar    1  UNL1       -0.0002
     14 C          63.1461   88.7379   12.5507 C.ar    1  UNL1       -0.0016
     15 O          61.8020   86.0818   12.1782 O.3     1  UNL1       -0.3460
     16 C          62.9941   85.1879   12.3503 C.3     1  UNL1        0.1602
     17 C          62.8018   83.7246   12.6184 C.3     1  UNL1        0.1047
     18 N          62.4729   83.2528   14.0039 N.3     1  UNL1       -0.2682
     19 C          62.0032   81.8456   14.2252 C.3     1  UNL1        0.0897
     20 C          62.6137   84.1883   15.1679 C.3     1  UNL1        0.0897
@<TRIPOS>BOND
     1     2     3    1
     2     3     4   ar
     3     4     5   ar
     4     5     6   ar
     5     6     7   ar
     6     7     8   ar
     7     8     1    1
     8     1    15    1
     9    15    16    1
    10    16    17    1
    11    17    18    1
    12    18    19    1
    13    18    20    1
    14     1     9    1
    15     9    10   ar
    16    10    11   ar
    17    11    12   ar
    18    12    13   ar
    19    13    14   ar
    20     8     3   ar
    21    14     9   ar
@<TRIPOS>MOLECULE
*****
 20 21 0 0 0
SMALL
GASTEIGER

@<TRIPOS>ATOM
      1 C          63.2721   84.3319   12.4184 C.3     1  UNL1        0.1594
      2 C          64.1163   82.0591   10.6514 C.3     1  UNL1        0.0308
      3 C          63.2571   81.7962   11.8525 C.ar    1  UNL1       -0.0232
      4 C          62.8200   80.3969   12.1702 C.ar    1  UNL1       -0.0045
      5 C          61.9609   80.1340   13.3713 C.ar    1  UNL1       -0.0003
      6 C          61.5388   81.2703   14.2547 C.ar    1  UNL1       -0.0003
      7 C          61.9759   82.6696   13.9371 C.ar    1  UNL1       -0.0019
      8 C          62.8350   82.9325   12.7360 C.ar    1  UNL1        0.0048
      9 C          62.6566   85.0661   11.2643 C.ar    1  UNL1        0.0087
     10 C          61.5107   86.0054   11.4982 C.ar    1  UNL1       -0.0016
     11 C          60.8952   86.7396   10.3441 C.ar    1  UNL1       -0.0002
     12 C          61.4256   86.5347    8.9560 C.ar    1  UNL1       -0.0000
     13 C          62.5715   85.5955    8.7221 C.ar    1  UNL1       -0.0002
     14 C          63.1871   84.8612    9.8762 C.ar    1  UNL1       -0.0016
     15 O          64.3247   84.9969   13.2549 O.3     1  UNL1       -0.3460
     16 C          64.0435   85.3276   14.6907 C.3     1  UNL1        0.1602
     17 C          64.1269   86.7488   15.1632 C.3     1  UNL1        0.1047
     18 N          63.3291   87.1912   16.3540 N.3     1  UNL1       -0.2682
     19 C          63.1658   88.6534   16.6461 C.3     1  UNL1        0.0897
     20 C          62.6946   86.1715   17.2526 C.3     1  UNL1        0.0897
@<TRIPOS>BOND
     1     2     3    1
     2     3     4   ar
     3     4     5   ar
     4     5     6   ar
     5     6     7   ar
     6     7     8   ar
     7     8     1    1
     8     1    15    1
     9    15    16    1
    10    16    17    1
    11    17    18    1
    12    18    19    1
    13    18    20    1
    14     1     9    1
    15     9    10   ar
    16    10    11   ar
    17    11    12   ar
    18    12    13   ar
    19    13    14   ar
    20     8     3   ar
    21    14     9   ar
@<TRIPOS>MOLECULE
*****
 20 21 0 0 0
SMALL
GASTEIGER

@<TRIPOS>ATOM
      1 C          62.0885   86.8449   10.9571 C.3     1  UNL1        0.1594
      2 C          63.6655   87.7419   13.3464 C.3     1  UNL1        0.0308
      3 C          63.2711   88.7339   12.2926 C.ar    1  UNL1       -0.0232
      4 C          63.6651   90.1743   12.4334 C.ar    1  UNL1       -0.0045
      5 C          63.2706   91.1663   11.3797 C.ar    1  UNL1       -0.0003
      6 C          62.4821   90.7178   10.1851 C.ar    1  UNL1       -0.0003
      7 C          62.0881   89.2774   10.0443 C.ar    1  UNL1       -0.0019
      8 C          62.4826   88.2854   11.0980 C.ar    1  UNL1        0.0048
      9 C          61.8546   86.2611    9.5954 C.ar    1  UNL1        0.0087
     10 C          62.9695   85.5578    8.8793 C.ar    1  UNL1       -0.0016
     11 C          62.7356   84.9740    7.5176 C.ar    1  UNL1       -0.0002
     12 C          61.3870   85.0933    6.8718 C.ar    1  UNL1       -0.0000
     13 C          60.2722   85.7965    7.5878 C.ar    1  UNL1       -0.0002
     14 C          60.5060   86.3804    8.9497 C.ar    1  UNL1       -0.0016
     15 O          61.9283   85.9884   12.1781 O.3     1  UNL1       -0.3460
     16 C          62.4423   84.5792   12.1783 C.3     1  UNL1        0.1602
     17 C          62.7195   83.8823   13.4773 C.3     1  UNL1        0.1047
     18 N          62.7746   82.3841   13.5278 N.3     1  UNL1       -0.2682
     19 C          63.9512   81.6569   12.9476 C.3     1  UNL1        0.0897
     20 C          61.6530   81.6132   14.1584 C.3     1  UNL1        0.0897
@<TRIPOS>BOND
     1     2     3    1
     2     3     4   ar
     3     4     5   ar
     4     5     6   ar
     5     6     7   ar
     6     7     8   ar
     7     8     1    1
     8     1    15    1
     9    15    16    1
    10    16    17    1
    11    17    18    1
    12    18    19    1
    13    18    20    1
    14     1     9    1
    15     9    10   ar
    16    10    11   ar
    17    11    12   ar
    18    12    13   ar
    19    13    14   ar
    20     8     3   ar
    21    14     9   ar
@<TRIPOS>MOLECULE
*****
 20 21 0 0 0
SMALL
GASTEIGER

@<TRIPOS>ATOM
      1 C          65.4307   92.5539   12.3656 C.3     1  UNL1        0.1594
      2 C          68.2745   91.6687   12.0059 C.3     1  UNL1        0.0308
      3 C          67.7718   92.0417   13.3690 C.ar    1  UNL1       -0.0232
      4 C          68.6910   91.9721   14.5523 C.ar    1  UNL1       -0.0045
      5 C          68.1883   92.3451   15.9155 C.ar    1  UNL1       -0.0003
      6 C          66.7664   92.7877   16.0953 C.ar    1  UNL1       -0.0003
      7 C          65.8473   92.8573   14.9120 C.ar    1  UNL1       -0.0019
      8 C          66.3500   92.4843   13.5489 C.ar    1  UNL1        0.0048
      9 C          64.4846   91.4247   12.0834 C.ar    1  UNL1        0.0087
     10 C          64.2897   90.3380   13.0988 C.ar    1  UNL1       -0.0016
     11 C          63.3435   89.2088   12.8166 C.ar    1  UNL1       -0.0002
     12 C          62.5923   89.1662   11.5190 C.ar    1  UNL1       -0.0000
     13 C          62.7872   90.2529   10.5036 C.ar    1  UNL1       -0.0002
     14 C          63.7334   91.3822   10.7857 C.ar    1  UNL1       -0.0016
     15 O          65.4576   93.7528   11.4645 O.3     1  UNL1       -0.3460
     16 C          66.3405   94.9196   11.7947 C.3     1  UNL1        0.1602
     17 C          66.5842   95.9890   10.7715 C.3     1  UNL1        0.1047
     18 N          67.1270   95.6253    9.4212 N.3     1  UNL1       -0.2682
     19 C          66.8479   96.5053    8.2389 C.3     1  UNL1        0.0897
     20 C          67.9487   94.3818    9.2532 C.3     1  UNL1        0.0897
@<TRIPOS>BOND
     1     2     3    1
     2     3     4   ar
     3     4     5   ar
     4     5     6   ar
     5     6     7   ar
     6     7     8   ar
     7     8     1    1
     8     1    15    1
     9    15    16    1
    10    16    17    1
    11    17    18    1
    12    18    19    1
    13    18    20    1
    14     1     9    1
    15     9    10   ar
    16    10    11   ar
    17    11    12   ar
    18    12    13   ar
    19    13    14   ar
    20     8     3   ar
    21    14     9   ar
@<TRIPOS>MOLECULE
*****
 20 21 0 0 0
SMALL
GASTEIGER

@<TRIPOS>ATOM
      1 C          64.2580   90.6454   14.4421 C.3     1  UNL1        0.1594
      2 C          64.5854   92.3313   16.9019 C.3     1  UNL1        0.0308
      3 C          65.7109   92.2150   15.9172 C.ar    1  UNL1       -0.0232
      4 C          67.0001   92.9415   16.1623 C.ar    1  UNL1       -0.0045
      5 C          68.1255   92.8251   15.1775 C.ar    1  UNL1       -0.0003
      6 C          67.9619   91.9822   13.9476 C.ar    1  UNL1       -0.0003
      7 C          66.6727   91.2557   13.7025 C.ar    1  UNL1       -0.0019
      8 C          65.5472   91.3720   14.6873 C.ar    1  UNL1        0.0048
      9 C          63.9921   89.3377   15.1270 C.ar    1  UNL1        0.0087
     10 C          63.2190   89.3077   16.4121 C.ar    1  UNL1       -0.0016
     11 C          62.9531   87.9999   17.0970 C.ar    1  UNL1       -0.0002
     12 C          63.4604   86.7222   16.4969 C.ar    1  UNL1       -0.0000
     13 C          64.2335   86.7522   15.2118 C.ar    1  UNL1       -0.0002
     14 C          64.4994   88.0600   14.5269 C.ar    1  UNL1       -0.0016
     15 O          63.2347   91.2266   13.5120 O.3     1  UNL1       -0.3460
     16 C          63.1729   90.7695   12.0848 C.3     1  UNL1        0.1602
     17 C          62.6635   89.3969   11.7582 C.3     1  UNL1        0.1047
     18 N          61.2628   89.2175   11.2520 N.3     1  UNL1       -0.2682
     19 C          60.7678   87.8503   10.8837 C.3     1  UNL1        0.0897
     20 C          60.3573   90.4054   11.1141 C.3     1  UNL1        0.0897
@<TRIPOS>BOND
     1     2     3    1
     2     3     4   ar
     3     4     5   ar
     4     5     6   ar
     5     6     7   ar
     6     7     8   ar
     7     8     1    1
     8     1    15    1
     9    15    16    1
    10    16    17    1
    11    17    18    1
    12    18    19    1
    13    18    20    1
    14     1     9    1
    15     9    10   ar
    16    10    11   ar
    17    11    12   ar
    18    12    13   ar
    19    13    14   ar
    20     8     3   ar
    21    14     9   ar
@<TRIPOS>MOLECULE
*****
 20 21 0 0 0
SMALL
GASTEIGER

@<TRIPOS>ATOM
      1 C          62.6751   85.1200   12.4573 C.3     1  UNL1        0.1594
      2 C          61.9022   82.7155   14.0763 C.3     1  UNL1        0.0308
      3 C          62.5853   82.5403   12.7524 C.ar    1  UNL1       -0.0232
      4 C          62.8820   81.1628   12.2380 C.ar    1  UNL1       -0.0045
      5 C          63.5651   80.9876   10.9142 C.ar    1  UNL1       -0.0003
      6 C          63.9515   82.1898   10.1047 C.ar    1  UNL1       -0.0003
      7 C          63.6549   83.5672   10.6190 C.ar    1  UNL1       -0.0019
      8 C          62.9717   83.7425   11.9429 C.ar    1  UNL1        0.0048
      9 C          62.2471   86.1992   11.5075 C.ar    1  UNL1        0.0087
     10 C          61.3091   85.8788   10.3816 C.ar    1  UNL1       -0.0016
     11 C          60.8812   86.9580    9.4318 C.ar    1  UNL1       -0.0002
     12 C          61.3912   88.3576    9.6078 C.ar    1  UNL1       -0.0000
     13 C          62.3291   88.6780   10.7336 C.ar    1  UNL1       -0.0002
     14 C          62.7571   87.5988   11.6835 C.ar    1  UNL1       -0.0016
     15 O          62.8063   85.4182   13.9215 O.3     1  UNL1       -0.3460
     16 C          64.1516   85.7345   14.5048 C.3     1  UNL1        0.1602
     17 C          64.3497   86.9954   15.2927 C.3     1  UNL1        0.1047
     18 N          63.4098   87.3366   16.4109 N.3     1  UNL1       -0.2682
     19 C          63.0759   88.7703   16.6988 C.3     1  UNL1        0.0897
     20 C          62.8039   86.2441   17.2411 C.3     1  UNL1        0.0897
@<TRIPOS>BOND
     1     2     3    1
     2     3     4   ar
     3     4     5   ar
     4     5     6   ar
     5     6     7   ar
     6     7     8   ar
     7     8     1    1
     8     1    15    1
     9    15    16    1
    10    16    17    1
    11    17    18    1
    12    18    19    1
    13    18    20    1
    14     1     9    1
    15     9    10   ar
    16    10    11   ar
    17    11    12   ar
    18    12    13   ar
    19    13    14   ar
    20     8     3   ar
    21    14     9   ar
@<TRIPOS>MOLECULE
*****
 20 21 0 0 0
SMALL
GASTEIGER

@<TRIPOS>ATOM
      1 C          64.6761   90.9205   14.3027 C.3     1  UNL1        0.1594
      2 C          64.8580   92.6023   16.7804 C.3     1  UNL1        0.0308
      3 C          66.0689   92.4047   15.9175 C.ar    1  UNL1       -0.0232
      4 C          67.3708   93.0479   16.2933 C.ar    1  UNL1       -0.0045
      5 C          68.5817   92.8503   15.4304 C.ar    1  UNL1       -0.0003
      6 C          68.4908   92.0094   14.1916 C.ar    1  UNL1       -0.0003
      7 C          67.1889   91.3662   13.8158 C.ar    1  UNL1       -0.0019
      8 C          65.9780   91.5638   14.6787 C.ar    1  UNL1        0.0048
      9 C          64.2332   89.6646   14.9931 C.ar    1  UNL1        0.0087
     10 C          64.5955   88.3263   14.4205 C.ar    1  UNL1       -0.0016
     11 C          64.1526   87.0704   15.1108 C.ar    1  UNL1       -0.0002
     12 C          63.3474   87.1527   16.3737 C.ar    1  UNL1       -0.0000
     13 C          62.9850   88.4910   16.9462 C.ar    1  UNL1       -0.0002
     14 C          63.4279   89.7469   16.2559 C.ar    1  UNL1       -0.0016
     15 O          63.8171   91.5331   13.2365 O.3     1  UNL1       -0.3460
     16 C          64.1437   91.3093   11.7897 C.3     1  UNL1        0.1602
     17 C          64.5366   92.4678   10.9216 C.3     1  UNL1        0.1047
     18 N          65.9046   93.0701   11.0485 N.3     1  UNL1       -0.2682
     19 C          67.0649   92.4551   10.3236 C.3     1  UNL1        0.0897
     20 C          66.1122   94.2872   11.9002 C.3     1  UNL1        0.0897
@<TRIPOS>BOND
     1     2     3    1
     2     3     4   ar
     3     4     5   ar
     4     5     6   ar
     5     6     7   ar
     6     7     8   ar
     7     8     1    1
     8     1    15    1
     9    15    16    1
    10    16    17    1
    11    17    18    1
    12    18    19    1
    13    18    20    1
    14     1     9    1
    15     9    10   ar
    16    10    11   ar
    17    11    12   ar
    18    12    13   ar
    19    13    14   ar
    20     8     3   ar
    21    14     9   ar
