@<TRIPOS>MOLECULE
*****
 41 45 0 0 0
SMALL
GASTEIGER

@<TRIPOS>ATOM
      1 C          63.6469   84.1775   12.9681 C.ar    1  UNL1        0.0000
      2 C          62.9743   83.5448   11.7860 C.ar    1  UNL1        0.0000
      3 O          62.3575   84.6375   10.9640 O.2     1  UNL1        0.0000
      4 C          62.6489   85.9454   11.6381 C.ar    1  UNL1        0.0000
      5 C          62.2916   87.3586   11.2841 C.ar    1  UNL1        0.0000
      6 C          62.7312   88.4874   12.1687 C.ar    1  UNL1        0.0000
      7 C          63.5280   88.2030   13.4073 C.ar    1  UNL1        0.0000
      8 C          63.8854   86.7899   13.7613 C.ar    1  UNL1        0.0000
      9 C          63.4458   85.6611   12.8767 C.ar    1  UNL1        0.0000
     10 C          62.9268   82.0772   11.4796 C.ar    1  UNL1        0.0000
     11 C          62.4989   81.1037   12.5375 C.ar    1  UNL1        0.0000
     12 C          62.4514   79.6361   12.2311 C.ar    1  UNL1        0.0000
     13 C          62.8318   79.1420   10.8669 C.ar    1  UNL1        0.0000
     14 F          62.7843   77.6744   10.5606 F       1  UNL1        0.0000
     15 C          63.2597   80.1155    9.8091 C.ar    1  UNL1        0.0000
     16 C          63.3072   81.5831   10.1154 C.ar    1  UNL1        0.0000
     17 C          64.5593   81.4785   15.7310 C.3     1  UNL1        0.0000
     18 N          63.8161   82.2024   14.6477 N.am    1  UNL1        0.0000
     19 C          64.3901   83.4535   14.0514 C.2     1  UNL1        0.0000
     20 O          65.7072   83.9806   14.5385 O.2     1  UNL1        0.0000
     21 H          62.9516   81.8565   14.3280 H       1  UNL1        0.0000
     22 C          63.9676   89.3319   14.2919 C.3     1  UNL1        0.0000
     23 C          63.6321   90.4587   15.2234 C.3     1  UNL1        0.0000
     24 C          65.0644   90.1603   14.8926 C.3     1  UNL1        0.0000
     25 N          62.3738   89.9006   11.8147 N.pl3   1  UNL1        0.0000
     26 C          63.4567   90.9021   11.5421 C.ar    1  UNL1        0.0000
     27 C          63.8159   91.2521   10.1283 C.ar    1  UNL1        0.0000
     28 C          64.8988   92.2536    9.8556 C.ar    1  UNL1        0.0000
     29 C          65.6224   92.9052   10.9967 C.ar    1  UNL1        0.0000
     30 C          65.2631   92.5552   12.4103 C.ar    1  UNL1        0.0000
     31 CL         65.9867   93.2068   13.5514 Cl      1  UNL1        0.0000
     32 C          64.1803   91.5537   12.6830 C.ar    1  UNL1        0.0000
     33 B          66.7052   93.9067   10.7240 B       1  UNL1        0.0000
     34 O          68.0475   93.4463   10.2376 O.3     1  UNL1        0.0000
     35 O          66.4459   95.3686   10.9377 O.3     1  UNL1        0.0000
     36 H          68.0469   92.4800   10.1535 H       1  UNL1        0.0000
     37 H          65.5364   95.4932   11.2510 H       1  UNL1        0.0000
     38 S          60.9337   90.3122   11.7334 S.O2    1  UNL1        0.0000
     39 C          59.4936   90.7238   11.6522 C.3     1  UNL1        0.0000
     40 O          61.1554   90.8117   10.3366 O.2     1  UNL1        0.0000
     41 O          60.7121   89.8127   13.1303 O.2     1  UNL1        0.0000
@<TRIPOS>BOND
     1    17    18    1
     2    18    19   am
     3    19    20    2
     4    19     1    1
     5     1     2   ar
     6     2    10    1
     7    10    11   ar
     8    11    12   ar
     9    12    13   ar
    10    13    14    1
    11    13    15   ar
    12    15    16   ar
    13     2     3   ar
    14     3     4   ar
    15     4     5   ar
    16     5     6   ar
    17     6    25    1
    18    25    26    1
    19    26    27   ar
    20    27    28   ar
    21    28    29   ar
    22    29    33    1
    23    33    34    1
    24    33    35    1
    25    29    30   ar
    26    30    31    1
    27    30    32   ar
    28    25    38    1
    29    38    39    1
    30    38    40    2
    31    38    41    2
    32     6     7   ar
    33     7    22    1
    34    22    23    1
    35    23    24    1
    36     7     8   ar
    37     8     9   ar
    38     9     1   ar
    39    16    10   ar
    40     9     4   ar
    41    32    26   ar
    42    24    22    1
    43    18    21    1
    44    34    36    1
    45    35    37    1
@<TRIPOS>MOLECULE
*****
 41 45 0 0 0
SMALL
GASTEIGER

@<TRIPOS>ATOM
      1 C          62.8330   85.8095   12.1682 C.ar    1  UNL1        0.0000
      2 C          63.2966   84.9852   13.3324 C.ar    1  UNL1        0.0000
      3 O          64.0097   85.8942   14.2891 O.2     1  UNL1        0.0000
      4 C          63.9867   87.2803   13.7162 C.ar    1  UNL1        0.0000
      5 C          64.5340   88.5833   14.2188 C.ar    1  UNL1        0.0000
      6 C          64.3541   89.8339   13.4105 C.ar    1  UNL1        0.0000
      7 C          63.6268   89.7816   12.0996 C.ar    1  UNL1        0.0000
      8 C          63.0795   88.4786   11.5971 C.ar    1  UNL1        0.0000
      9 C          63.2594   87.2280   12.4054 C.ar    1  UNL1        0.0000
     10 C          63.0845   83.5108   13.5089 C.ar    1  UNL1        0.0000
     11 C          61.8654   83.0088   14.2243 C.ar    1  UNL1        0.0000
     12 C          61.6533   81.5344   14.4008 C.ar    1  UNL1        0.0000
     13 C          62.6603   80.5620   13.8620 C.ar    1  UNL1        0.0000
     14 F          62.4482   79.0876   14.0385 F       1  UNL1        0.0000
     15 C          63.8794   81.0640   13.1466 C.ar    1  UNL1        0.0000
     16 C          64.0915   82.5384   12.9701 C.ar    1  UNL1        0.0000
     17 C          60.5926   85.7627    8.8926 C.3     1  UNL1        0.0000
     18 N          61.3498   86.2681   10.0848 N.am    1  UNL1        0.0000
     19 C          62.0758   85.3042   10.9760 C.2     1  UNL1        0.0000
     20 O          62.0444   83.8352   10.6749 O.2     1  UNL1        0.0000
     21 H          61.3704   87.2323   10.2824 H       1  UNL1        0.0000
     22 C          63.4469   91.0324   11.2913 C.3     1  UNL1        0.0000
     23 C          63.6725   91.8046   10.0254 C.3     1  UNL1        0.0000
     24 C          62.9097   92.4265   11.1573 C.3     1  UNL1        0.0000
     25 N          64.9014   91.1370   13.9130 N.pl3   1  UNL1        0.0000
     26 C          65.6242   92.0583   12.9756 C.ar    1  UNL1        0.0000
     27 C          65.4646   93.5436   13.1122 C.ar    1  UNL1        0.0000
     28 C          66.1873   94.4649   12.1747 C.ar    1  UNL1        0.0000
     29 C          67.0697   93.9009   11.1007 C.ar    1  UNL1        0.0000
     30 C          67.2292   92.4157   10.9641 C.ar    1  UNL1        0.0000
     31 CL         68.1116   91.8518    9.8901 Cl      1  UNL1        0.0000
     32 C          66.5065   91.4944   11.9016 C.ar    1  UNL1        0.0000
     33 B          67.7924   94.8222   10.1632 B       1  UNL1        0.0000
     34 O          67.3448   96.2465   10.0178 O.3     1  UNL1        0.0000
     35 O          68.9628   94.3193    9.3712 O.3     1  UNL1        0.0000
     36 H          66.5819   96.4062   10.5952 H       1  UNL1        0.0000
     37 H          69.1182   93.3853    9.5817 H       1  UNL1        0.0000
     38 S          64.7260   91.5187   15.3530 S.O2    1  UNL1        0.0000
     39 C          64.5505   91.9005   16.7930 C.3     1  UNL1        0.0000
     40 O          66.2057   91.7306   15.4771 O.2     1  UNL1        0.0000
     41 O          63.2462   91.3069   15.2288 O.2     1  UNL1        0.0000
@<TRIPOS>BOND
     1    17    18    1
     2    18    19   am
     3    19    20    2
     4    19     1    1
     5     1     2   ar
     6     2    10    1
     7    10    11   ar
     8    11    12   ar
     9    12    13   ar
    10    13    14    1
    11    13    15   ar
    12    15    16   ar
    13     2     3   ar
    14     3     4   ar
    15     4     5   ar
    16     5     6   ar
    17     6    25    1
    18    25    26    1
    19    26    27   ar
    20    27    28   ar
    21    28    29   ar
    22    29    33    1
    23    33    34    1
    24    33    35    1
    25    29    30   ar
    26    30    31    1
    27    30    32   ar
    28    25    38    1
    29    38    39    1
    30    38    40    2
    31    38    41    2
    32     6     7   ar
    33     7    22    1
    34    22    23    1
    35    23    24    1
    36     7     8   ar
    37     8     9   ar
    38     9     1   ar
    39    16    10   ar
    40     9     4   ar
    41    32    26   ar
    42    24    22    1
    43    18    21    1
    44    34    36    1
    45    35    37    1
@<TRIPOS>MOLECULE
*****
 41 45 0 0 0
SMALL
GASTEIGER

@<TRIPOS>ATOM
      1 C          59.2500   91.5560    4.7654 C.ar    1  UNL1        0.0000
      2 C          60.2943   90.7116    5.4337 C.ar    1  UNL1        0.0000
      3 O          61.6146   91.0098    4.7874 O.2     1  UNL1        0.0000
      4 C          61.3864   92.0384    3.7197 C.ar    1  UNL1        0.0000
      5 C          62.3205   92.7112    2.7581 C.ar    1  UNL1        0.0000
      6 C          61.7932   93.7216    1.7830 C.ar    1  UNL1        0.0000
      7 C          60.3317   94.0592    1.7694 C.ar    1  UNL1        0.0000
      8 C          59.3976   93.3864    2.7310 C.ar    1  UNL1        0.0000
      9 C          59.9250   92.3760    3.7061 C.ar    1  UNL1        0.0000
     10 C          60.0594   89.7398    6.5519 C.ar    1  UNL1        0.0000
     11 C          59.4703   88.3911    6.2621 C.ar    1  UNL1        0.0000
     12 C          59.2355   87.4193    7.3803 C.ar    1  UNL1        0.0000
     13 C          59.5897   87.7961    8.7883 C.ar    1  UNL1        0.0000
     14 F          59.3548   86.8243    9.9065 F       1  UNL1        0.0000
     15 C          60.1787   89.1448    9.0781 C.ar    1  UNL1        0.0000
     16 C          60.4136   90.1166    7.9599 C.ar    1  UNL1        0.0000
     17 C          55.6117   90.3188    5.7567 C.3     1  UNL1        0.0000
     18 N          57.0742   90.2980    5.4240 N.am    1  UNL1        0.0000
     19 C          57.7875   91.5768    5.0980 C.2     1  UNL1        0.0000
     20 O          57.0382   92.8761    5.1047 O.2     1  UNL1        0.0000
     21 H          57.5660   89.4451    5.4197 H       1  UNL1        0.0000
     22 C          59.8044   95.0697    0.7942 C.3     1  UNL1        0.0000
     23 C          59.0087   95.3970   -0.4345 C.3     1  UNL1        0.0000
     24 C          59.6868   96.4924    0.3338 C.3     1  UNL1        0.0000
     25 N          62.7273   94.3945    0.8213 N.pl3   1  UNL1        0.0000
     26 C          62.4513   94.3438   -0.6522 C.ar    1  UNL1        0.0000
     27 C          61.9033   93.0915   -1.2699 C.ar    1  UNL1        0.0000
     28 C          61.6272   93.0407   -2.7434 C.ar    1  UNL1        0.0000
     29 C          61.8991   94.2424   -3.5992 C.ar    1  UNL1        0.0000
     30 C          62.4471   95.4946   -2.9815 C.ar    1  UNL1        0.0000
     31 CL         62.7190   96.6962   -3.8372 Cl      1  UNL1        0.0000
     32 C          62.7231   95.5453   -1.5080 C.ar    1  UNL1        0.0000
     33 B          61.6231   94.1916   -5.0727 B       1  UNL1        0.0000
     34 O          62.7198   93.8273   -6.0291 O.3     1  UNL1        0.0000
     35 O          60.2504   94.5052   -5.5898 O.3     1  UNL1        0.0000
     36 H          63.5365   93.6563   -5.5346 H       1  UNL1        0.0000
     37 H          59.6657   94.7189   -4.8460 H       1  UNL1        0.0000
     38 S          63.9374   95.1180    1.3332 S.O2    1  UNL1        0.0000
     39 C          65.1476   95.8417    1.8451 C.3     1  UNL1        0.0000
     40 O          64.8142   94.0140    0.8211 O.2     1  UNL1        0.0000
     41 O          63.0607   96.2221    1.8452 O.2     1  UNL1        0.0000
@<TRIPOS>BOND
     1    17    18    1
     2    18    19   am
     3    19    20    2
     4    19     1    1
     5     1     2   ar
     6     2    10    1
     7    10    11   ar
     8    11    12   ar
     9    12    13   ar
    10    13    14    1
    11    13    15   ar
    12    15    16   ar
    13     2     3   ar
    14     3     4   ar
    15     4     5   ar
    16     5     6   ar
    17     6    25    1
    18    25    26    1
    19    26    27   ar
    20    27    28   ar
    21    28    29   ar
    22    29    33    1
    23    33    34    1
    24    33    35    1
    25    29    30   ar
    26    30    31    1
    27    30    32   ar
    28    25    38    1
    29    38    39    1
    30    38    40    2
    31    38    41    2
    32     6     7   ar
    33     7    22    1
    34    22    23    1
    35    23    24    1
    36     7     8   ar
    37     8     9   ar
    38     9     1   ar
    39    16    10   ar
    40     9     4   ar
    41    32    26   ar
    42    24    22    1
    43    18    21    1
    44    34    36    1
    45    35    37    1
@<TRIPOS>MOLECULE
*****
 41 45 0 0 0
SMALL
GASTEIGER

@<TRIPOS>ATOM
      1 C          65.8006   92.3596   12.1064 C.ar    1  UNL1        0.0000
      2 C          65.6053   92.6994   10.6585 C.ar    1  UNL1        0.0000
      3 O          64.5190   91.8177   10.1180 O.2     1  UNL1        0.0000
      4 C          64.0428   90.9329   11.2318 C.ar    1  UNL1        0.0000
      5 C          62.9903   89.8655   11.2857 C.ar    1  UNL1        0.0000
      6 C          62.7300   89.1331   12.5685 C.ar    1  UNL1        0.0000
      7 C          63.5221   89.4681   13.7975 C.ar    1  UNL1        0.0000
      8 C          64.5746   90.5355   13.7436 C.ar    1  UNL1        0.0000
      9 C          64.8350   91.2679   12.4607 C.ar    1  UNL1        0.0000
     10 C          66.3633   93.7386    9.8867 C.ar    1  UNL1        0.0000
     11 C          67.5320   93.3372    9.0364 C.ar    1  UNL1        0.0000
     12 C          68.2899   94.3763    8.2646 C.ar    1  UNL1        0.0000
     13 C          67.8793   95.8168    8.3431 C.ar    1  UNL1        0.0000
     14 F          68.6373   96.8559    7.5713 F       1  UNL1        0.0000
     15 C          66.7107   96.2182    9.1935 C.ar    1  UNL1        0.0000
     16 C          65.9527   95.1791    9.9653 C.ar    1  UNL1        0.0000
     17 C          68.8541   92.8109   14.6011 C.3     1  UNL1        0.0000
     18 N          67.8665   92.1713   13.6708 N.am    1  UNL1        0.0000
     19 C          66.7882   92.9993   13.0367 C.2     1  UNL1        0.0000
     20 O          66.6977   94.4669   13.3331 O.2     1  UNL1        0.0000
     21 H          67.9259   91.2080   13.4763 H       1  UNL1        0.0000
     22 C          63.2617   88.7356   15.0804 C.3     1  UNL1        0.0000
     23 C          62.6205   88.6760   16.4350 C.3     1  UNL1        0.0000
     24 C          63.4520   87.5267   15.9477 C.3     1  UNL1        0.0000
     25 N          61.6774   88.0657   12.6225 N.pl3   1  UNL1        0.0000
     26 C          62.0744   86.6193   12.6019 C.ar    1  UNL1        0.0000
     27 C          62.4216   85.9553   11.3025 C.ar    1  UNL1        0.0000
     28 C          62.8185   84.5089   11.2819 C.ar    1  UNL1        0.0000
     29 C          62.8683   83.7266   12.5609 C.ar    1  UNL1        0.0000
     30 C          62.5211   84.3906   13.8602 C.ar    1  UNL1        0.0000
     31 CL         62.5708   83.6083   15.1392 Cl      1  UNL1        0.0000
     32 C          62.1242   85.8370   13.8808 C.ar    1  UNL1        0.0000
     33 B          63.2652   82.2802   12.5403 B       1  UNL1        0.0000
     34 O          62.2117   81.2128   12.5717 O.3     1  UNL1        0.0000
     35 O          64.7156   81.9012   12.4884 O.3     1  UNL1        0.0000
     36 H          61.3344   81.6253   12.6039 H       1  UNL1        0.0000
     37 H          65.2593   82.7043   12.4734 H       1  UNL1        0.0000
     38 S          60.2281   88.4447   12.6970 S.O2    1  UNL1        0.0000
     39 C          58.7786   88.8237   12.7714 C.3     1  UNL1        0.0000
     40 O          60.5126   89.2969   13.8980 O.2     1  UNL1        0.0000
     41 O          59.9435   87.5924   11.4959 O.2     1  UNL1        0.0000
@<TRIPOS>BOND
     1    17    18    1
     2    18    19   am
     3    19    20    2
     4    19     1    1
     5     1     2   ar
     6     2    10    1
     7    10    11   ar
     8    11    12   ar
     9    12    13   ar
    10    13    14    1
    11    13    15   ar
    12    15    16   ar
    13     2     3   ar
    14     3     4   ar
    15     4     5   ar
    16     5     6   ar
    17     6    25    1
    18    25    26    1
    19    26    27   ar
    20    27    28   ar
    21    28    29   ar
    22    29    33    1
    23    33    34    1
    24    33    35    1
    25    29    30   ar
    26    30    31    1
    27    30    32   ar
    28    25    38    1
    29    38    39    1
    30    38    40    2
    31    38    41    2
    32     6     7   ar
    33     7    22    1
    34    22    23    1
    35    23    24    1
    36     7     8   ar
    37     8     9   ar
    38     9     1   ar
    39    16    10   ar
    40     9     4   ar
    41    32    26   ar
    42    24    22    1
    43    18    21    1
    44    34    36    1
    45    35    37    1
@<TRIPOS>MOLECULE
*****
 41 45 0 0 0
SMALL
GASTEIGER

@<TRIPOS>ATOM
      1 C          63.0367   85.6653   12.4486 C.ar    1  UNL1        0.0000
      2 C          63.1925   84.7108   13.5951 C.ar    1  UNL1        0.0000
      3 O          63.6334   85.4956   14.7949 O.2     1  UNL1        0.0000
      4 C          63.7500   86.9352   14.3899 C.ar    1  UNL1        0.0000
      5 C          64.1444   88.1641   15.1543 C.ar    1  UNL1        0.0000
      6 C          64.1700   89.4978   14.4684 C.ar    1  UNL1        0.0000
      7 C          63.8012   89.6027   13.0183 C.ar    1  UNL1        0.0000
      8 C          63.4068   88.3738   12.2539 C.ar    1  UNL1        0.0000
      9 C          63.3812   87.0401   12.9398 C.ar    1  UNL1        0.0000
     10 C          62.9500   83.2312   13.5498 C.ar    1  UNL1        0.0000
     11 C          61.7762   82.6410   14.2735 C.ar    1  UNL1        0.0000
     12 C          61.5337   81.1615   14.2281 C.ar    1  UNL1        0.0000
     13 C          62.4651   80.2720   13.4592 C.ar    1  UNL1        0.0000
     14 F          62.2226   78.7924   13.4139 F       1  UNL1        0.0000
     15 C          63.6390   80.8622   12.7355 C.ar    1  UNL1        0.0000
     16 C          63.8814   82.3418   12.7808 C.ar    1  UNL1        0.0000
     17 C          61.0283   85.6619    9.0256 C.3     1  UNL1        0.0000
     18 N          61.4539   86.0194   10.4188 N.am    1  UNL1        0.0000
     19 C          62.6110   85.3078   11.0554 C.2     1  UNL1        0.0000
     20 O          63.3422   84.2389   10.2987 O.2     1  UNL1        0.0000
     21 H          60.9740   86.7209   10.9154 H       1  UNL1        0.0000
     22 C          63.8268   90.9365   12.3324 C.3     1  UNL1        0.0000
     23 C          63.4537   91.8062   11.1686 C.3     1  UNL1        0.0000
     24 C          64.2442   92.3771   12.3084 C.3     1  UNL1        0.0000
     25 N          64.5644   90.7268   15.2328 N.pl3   1  UNL1        0.0000
     26 C          65.9403   91.3017   15.0704 C.ar    1  UNL1        0.0000
     27 C          66.6109   91.9806   16.2277 C.ar    1  UNL1        0.0000
     28 C          67.9868   92.5554   16.0653 C.ar    1  UNL1        0.0000
     29 C          68.6921   92.4514   14.7455 C.ar    1  UNL1        0.0000
     30 C          68.0215   91.7725   13.5882 C.ar    1  UNL1        0.0000
     31 CL         68.7268   91.6685   12.2684 Cl      1  UNL1        0.0000
     32 C          66.6456   91.1977   13.7507 C.ar    1  UNL1        0.0000
     33 B          70.0681   93.0262   14.5831 B       1  UNL1        0.0000
     34 O          71.0739   92.3304   13.7146 O.3     1  UNL1        0.0000
     35 O          70.4382   94.2969   15.2891 O.3     1  UNL1        0.0000
     36 H          70.6761   91.5308   13.3361 H       1  UNL1        0.0000
     37 H          69.6796   94.6133   15.8042 H       1  UNL1        0.0000
     38 S          63.5829   91.3809   16.1595 S.O2    1  UNL1        0.0000
     39 C          62.6013   92.0350   17.0862 C.3     1  UNL1        0.0000
     40 O          64.3943   92.6420   16.1288 O.2     1  UNL1        0.0000
     41 O          62.7714   90.1198   16.1901 O.2     1  UNL1        0.0000
@<TRIPOS>BOND
     1    17    18    1
     2    18    19   am
     3    19    20    2
     4    19     1    1
     5     1     2   ar
     6     2    10    1
     7    10    11   ar
     8    11    12   ar
     9    12    13   ar
    10    13    14    1
    11    13    15   ar
    12    15    16   ar
    13     2     3   ar
    14     3     4   ar
    15     4     5   ar
    16     5     6   ar
    17     6    25    1
    18    25    26    1
    19    26    27   ar
    20    27    28   ar
    21    28    29   ar
    22    29    33    1
    23    33    34    1
    24    33    35    1
    25    29    30   ar
    26    30    31    1
    27    30    32   ar
    28    25    38    1
    29    38    39    1
    30    38    40    2
    31    38    41    2
    32     6     7   ar
    33     7    22    1
    34    22    23    1
    35    23    24    1
    36     7     8   ar
    37     8     9   ar
    38     9     1   ar
    39    16    10   ar
    40     9     4   ar
    41    32    26   ar
    42    24    22    1
    43    18    21    1
    44    34    36    1
    45    35    37    1
@<TRIPOS>MOLECULE
*****
 41 45 0 0 0
SMALL
GASTEIGER

@<TRIPOS>ATOM
      1 C          62.8914   85.3659   11.3246 C.ar    1  UNL1        0.0000
      2 C          63.2234   84.2495   12.2698 C.ar    1  UNL1        0.0000
      3 O          63.7194   84.8568   13.5485 O.2     1  UNL1        0.0000
      4 C          63.6939   86.3486   13.3937 C.ar    1  UNL1        0.0000
      5 C          64.0706   87.4610   14.3266 C.ar    1  UNL1        0.0000
      6 C          63.9355   88.8882   13.8852 C.ar    1  UNL1        0.0000
      7 C          63.4238   89.2029   12.5107 C.ar    1  UNL1        0.0000
      8 C          63.0472   88.0904   11.5777 C.ar    1  UNL1        0.0000
      9 C          63.1822   86.6632   12.0192 C.ar    1  UNL1        0.0000
     10 C          63.0839   82.7832   11.9860 C.ar    1  UNL1        0.0000
     11 C          63.4737   82.2386   10.6439 C.ar    1  UNL1        0.0000
     12 C          63.3342   80.7723   10.3601 C.ar    1  UNL1        0.0000
     13 C          62.8049   79.8506   11.4185 C.ar    1  UNL1        0.0000
     14 F          62.6654   78.3843   11.1347 F       1  UNL1        0.0000
     15 C          62.4151   80.3952   12.7607 C.ar    1  UNL1        0.0000
     16 C          62.5546   81.8615   13.0444 C.ar    1  UNL1        0.0000
     17 C          62.7674   84.7295    7.4093 C.3     1  UNL1        0.0000
     18 N          63.2972   84.8833    8.8042 N.am    1  UNL1        0.0000
     19 C          62.3617   85.2121    9.9298 C.2     1  UNL1        0.0000
     20 O          60.8965   85.3870    9.6604 O.2     1  UNL1        0.0000
     21 H          64.2588   84.7685    8.9809 H       1  UNL1        0.0000
     22 C          63.2888   90.6301   12.0692 C.3     1  UNL1        0.0000
     23 C          63.5844   91.7169   11.0786 C.3     1  UNL1        0.0000
     24 C          62.7593   92.0152   12.2952 C.3     1  UNL1        0.0000
     25 N          64.3122   90.0008   14.8181 N.pl3   1  UNL1        0.0000
     26 C          65.6349   90.6917   14.6660 C.ar    1  UNL1        0.0000
     27 C          66.0963   91.1381   13.3103 C.ar    1  UNL1        0.0000
     28 C          67.4190   91.8290   13.1581 C.ar    1  UNL1        0.0000
     29 C          68.2802   92.0737   14.3617 C.ar    1  UNL1        0.0000
     30 C          67.8187   91.6273   15.7173 C.ar    1  UNL1        0.0000
     31 CL         68.6800   91.8720   16.9209 Cl      1  UNL1        0.0000
     32 C          66.4961   90.9364   15.8695 C.ar    1  UNL1        0.0000
     33 B          69.6028   92.7646   14.2095 B       1  UNL1        0.0000
     34 O          69.8472   94.0760   14.8956 O.3     1  UNL1        0.0000
     35 O          70.6811   92.1442   13.3714 O.3     1  UNL1        0.0000
     36 H          69.0548   94.3338   15.3920 H       1  UNL1        0.0000
     37 H          70.3619   91.3057   13.0028 H       1  UNL1        0.0000
     38 S          63.3663   90.4223   15.9032 S.O2    1  UNL1        0.0000
     39 C          62.4202   90.8438   16.9883 C.3     1  UNL1        0.0000
     40 O          63.6298   91.8617   15.5738 O.2     1  UNL1        0.0000
     41 O          63.1027   88.9829   16.2326 O.2     1  UNL1        0.0000
@<TRIPOS>BOND
     1    17    18    1
     2    18    19   am
     3    19    20    2
     4    19     1    1
     5     1     2   ar
     6     2    10    1
     7    10    11   ar
     8    11    12   ar
     9    12    13   ar
    10    13    14    1
    11    13    15   ar
    12    15    16   ar
    13     2     3   ar
    14     3     4   ar
    15     4     5   ar
    16     5     6   ar
    17     6    25    1
    18    25    26    1
    19    26    27   ar
    20    27    28   ar
    21    28    29   ar
    22    29    33    1
    23    33    34    1
    24    33    35    1
    25    29    30   ar
    26    30    31    1
    27    30    32   ar
    28    25    38    1
    29    38    39    1
    30    38    40    2
    31    38    41    2
    32     6     7   ar
    33     7    22    1
    34    22    23    1
    35    23    24    1
    36     7     8   ar
    37     8     9   ar
    38     9     1   ar
    39    16    10   ar
    40     9     4   ar
    41    32    26   ar
    42    24    22    1
    43    18    21    1
    44    34    36    1
    45    35    37    1
@<TRIPOS>MOLECULE
*****
 41 45 0 0 0
SMALL
GASTEIGER

@<TRIPOS>ATOM
      1 C          60.9451   87.1464    8.6614 C.ar    1  UNL1        0.0000
      2 C          60.5701   88.5978    8.6068 C.ar    1  UNL1        0.0000
      3 O          61.0281   89.2431    9.8810 O.2     1  UNL1        0.0000
      4 C          61.6862   88.1907   10.7232 C.ar    1  UNL1        0.0000
      5 C          62.3256   88.2449   12.0790 C.ar    1  UNL1        0.0000
      6 C          62.9136   87.0032   12.6810 C.ar    1  UNL1        0.0000
      7 C          62.8623   85.7074   11.9272 C.ar    1  UNL1        0.0000
      8 C          62.2229   85.6532   10.5714 C.ar    1  UNL1        0.0000
      9 C          61.6349   86.8948    9.9694 C.ar    1  UNL1        0.0000
     10 C          59.8614   89.2833    7.4764 C.ar    1  UNL1        0.0000
     11 C          58.3830   89.1030    7.2986 C.ar    1  UNL1        0.0000
     12 C          57.6743   89.7885    6.1682 C.ar    1  UNL1        0.0000
     13 C          58.4441   90.6545    5.2156 C.ar    1  UNL1        0.0000
     14 F          57.7354   91.3401    4.0852 F       1  UNL1        0.0000
     15 C          59.9225   90.8349    5.3934 C.ar    1  UNL1        0.0000
     16 C          60.6312   90.1493    6.5237 C.ar    1  UNL1        0.0000
     17 C          61.5398   84.2972    5.9635 C.3     1  UNL1        0.0000
     18 N          61.8075   85.3178    7.0297 N.am    1  UNL1        0.0000
     19 C          60.6773   86.1258    7.5952 C.2     1  UNL1        0.0000
     20 O          59.2795   85.9132    7.0946 O.2     1  UNL1        0.0000
     21 H          62.7250   85.4573    7.3582 H       1  UNL1        0.0000
     22 C          63.4504   84.4657   12.5294 C.3     1  UNL1        0.0000
     23 C          63.2766   83.1748   13.2732 C.3     1  UNL1        0.0000
     24 C          64.6427   83.6061   12.8284 C.3     1  UNL1        0.0000
     25 N          63.5530   87.0574   14.0369 N.pl3   1  UNL1        0.0000
     26 C          63.8362   88.3826   14.6801 C.ar    1  UNL1        0.0000
     27 C          63.2911   88.6858   16.0443 C.ar    1  UNL1        0.0000
     28 C          63.5743   90.0110   16.6876 C.ar    1  UNL1        0.0000
     29 C          64.4025   91.0329   15.9666 C.ar    1  UNL1        0.0000
     30 C          64.9476   90.7296   14.6025 C.ar    1  UNL1        0.0000
     31 CL         65.7758   91.7516   13.8815 Cl      1  UNL1        0.0000
     32 C          64.6644   89.4045   13.9592 C.ar    1  UNL1        0.0000
     33 B          64.6857   92.3580   16.6099 B       1  UNL1        0.0000
     34 O          63.5518   93.2288   17.0642 O.3     1  UNL1        0.0000
     35 O          66.1026   92.8125   16.7988 O.3     1  UNL1        0.0000
     36 H          62.7090   92.7900   16.8692 H       1  UNL1        0.0000
     37 H          66.7075   92.1375   16.4532 H       1  UNL1        0.0000
     38 S          63.9092   85.7865   14.7494 S.O2    1  UNL1        0.0000
     39 C          64.2654   84.5155   15.4620 C.3     1  UNL1        0.0000
     40 O          62.4539   85.5122   14.9876 O.2     1  UNL1        0.0000
     41 O          65.3645   86.0608   14.5112 O.2     1  UNL1        0.0000
@<TRIPOS>BOND
     1    17    18    1
     2    18    19   am
     3    19    20    2
     4    19     1    1
     5     1     2   ar
     6     2    10    1
     7    10    11   ar
     8    11    12   ar
     9    12    13   ar
    10    13    14    1
    11    13    15   ar
    12    15    16   ar
    13     2     3   ar
    14     3     4   ar
    15     4     5   ar
    16     5     6   ar
    17     6    25    1
    18    25    26    1
    19    26    27   ar
    20    27    28   ar
    21    28    29   ar
    22    29    33    1
    23    33    34    1
    24    33    35    1
    25    29    30   ar
    26    30    31    1
    27    30    32   ar
    28    25    38    1
    29    38    39    1
    30    38    40    2
    31    38    41    2
    32     6     7   ar
    33     7    22    1
    34    22    23    1
    35    23    24    1
    36     7     8   ar
    37     8     9   ar
    38     9     1   ar
    39    16    10   ar
    40     9     4   ar
    41    32    26   ar
    42    24    22    1
    43    18    21    1
    44    34    36    1
    45    35    37    1
