@<TRIPOS>MOLECULE
*****
 19 20 0 0 0
SMALL
GASTEIGER

@<TRIPOS>ATOM
      1 C          63.4976   90.1786   12.8682 C.ar    1  UNL1        0.1351
      2 C          63.8356   91.3310   11.9694 C.ar    1  UNL1        0.0375
      3 C          65.0266   92.1921   12.2698 C.ar    1  UNL1        0.0145
      4 C          65.8795   91.9007   13.4688 C.ar    1  UNL1        0.0576
      5 CL         67.0704   92.7617   13.7692 Cl      1  UNL1       -0.0823
      6 C          65.5414   90.7482   14.3675 C.ar    1  UNL1        0.0101
      7 C          64.3505   89.8872   14.0672 C.ar    1  UNL1        0.0123
      8 C          64.0124   88.7348   14.9659 C.3     1  UNL1        0.0253
      9 C          64.4185   87.3796   14.4670 C.3     1  UNL1        0.0045
     10 C          64.2254   86.0448   15.1237 C.3     1  UNL1        0.0003
     11 C          63.5786   85.7356   16.4411 C.3     1  UNL1        0.0000
     12 C          62.9651   86.6846   17.4275 C.3     1  UNL1        0.0000
     13 C          62.8468   88.1773   17.3399 C.3     1  UNL1        0.0003
     14 C          63.3130   89.0897   16.2443 C.3     1  UNL1        0.0045
     15 O          62.3066   89.3175   12.5678 O.3     1  UNL1       -0.4697
     16 C          61.3143   89.7461   11.5278 C.3     1  UNL1        0.2468
     17 O          59.0716   91.0544   11.4351 O.co2   1  UNL1       -0.5454
     18 C          59.8606   89.8586   11.8796 C.2     1  UNL1        0.0940
     19 O          59.1957   88.7751   12.6759 O.co2   1  UNL1       -0.5454
@<TRIPOS>UNITY_ATOM_ATTR
17 1
charge -1
@<TRIPOS>BOND
     1    17    18   ar
     2    18    19   ar
     3    18    16    1
     4    16    15    1
     5    15     1    1
     6     1     2   ar
     7     2     3   ar
     8     3     4   ar
     9     4     5    1
    10     4     6   ar
    11     6     7   ar
    12     7     8    1
    13     8     9    1
    14     9    10    1
    15    10    11    1
    16    11    12    1
    17    12    13    1
    18    13    14    1
    19     7     1   ar
    20    14     8    1
@<TRIPOS>MOLECULE
*****
 19 20 0 0 0
SMALL
GASTEIGER

@<TRIPOS>ATOM
      1 C          63.7449   90.2205   12.8820 C.ar    1  UNL1        0.1351
      2 C          64.1212   91.3948   12.0279 C.ar    1  UNL1        0.0375
      3 C          65.2264   92.3126   12.4597 C.ar    1  UNL1        0.0145
      4 C          65.9551   92.0561   13.7454 C.ar    1  UNL1        0.0576
      5 CL         67.0602   92.9738   14.1772 Cl      1  UNL1       -0.0823
      6 C          65.5787   90.8817   14.5995 C.ar    1  UNL1        0.0101
      7 C          64.4736   89.9640   14.1677 C.ar    1  UNL1        0.0123
      8 C          64.0971   88.7896   15.0217 C.3     1  UNL1        0.0253
      9 C          63.3503   89.1140   16.2816 C.3     1  UNL1        0.0045
     10 C          62.8392   88.1750   17.3338 C.3     1  UNL1        0.0003
     11 C          62.9486   86.6800   17.3861 C.3     1  UNL1        0.0000
     12 C          63.5962   85.7545   16.3990 C.3     1  UNL1        0.0000
     13 C          64.2942   86.0956   15.1159 C.3     1  UNL1        0.0003
     14 C          64.5172   87.4464   14.5030 C.3     1  UNL1        0.0045
     15 O          62.6397   89.3027   12.4502 O.3     1  UNL1       -0.4697
     16 C          61.4566   89.8504   11.7085 C.3     1  UNL1        0.2468
     17 O          60.3635   87.5217   11.3447 O.co2   1  UNL1       -0.5454
     18 C          60.5919   88.9342   10.8944 C.2     1  UNL1        0.0940
     19 O          59.9556   89.4304    9.6299 O.co2   1  UNL1       -0.5454
@<TRIPOS>UNITY_ATOM_ATTR
17 1
charge -1
@<TRIPOS>BOND
     1    17    18   ar
     2    18    19   ar
     3    18    16    1
     4    16    15    1
     5    15     1    1
     6     1     2   ar
     7     2     3   ar
     8     3     4   ar
     9     4     5    1
    10     4     6   ar
    11     6     7   ar
    12     7     8    1
    13     8     9    1
    14     9    10    1
    15    10    11    1
    16    11    12    1
    17    12    13    1
    18    13    14    1
    19     7     1   ar
    20    14     8    1
@<TRIPOS>MOLECULE
*****
 19 20 0 0 0
SMALL
GASTEIGER

@<TRIPOS>ATOM
      1 C          61.9540   87.8310   10.8658 C.ar    1  UNL1        0.1351
      2 C          61.1937   89.0021   10.3178 C.ar    1  UNL1        0.0375
      3 C          60.2116   88.8028    9.2016 C.ar    1  UNL1        0.0145
      4 C          59.9898   87.4324    8.6335 C.ar    1  UNL1        0.0576
      5 CL         59.0077   87.2330    7.5174 Cl      1  UNL1       -0.0823
      6 C          60.7501   86.2612    9.1816 C.ar    1  UNL1        0.0101
      7 C          61.7322   86.4605   10.2977 C.ar    1  UNL1        0.0123
      8 C          62.4926   85.2894   10.8458 C.3     1  UNL1        0.0253
      9 C          62.3662   85.0656   12.3237 C.3     1  UNL1        0.0045
     10 C          62.9948   83.9940   13.1644 C.3     1  UNL1        0.0003
     11 C          63.9049   82.8818   12.7349 C.3     1  UNL1        0.0000
     12 C          64.4114   82.5663   11.3587 C.3     1  UNL1        0.0000
     13 C          64.1327   83.2852   10.0720 C.3     1  UNL1        0.0003
     14 C          63.2787   84.4971    9.8438 C.3     1  UNL1        0.0045
     15 O          62.9361   88.0303   11.9820 O.3     1  UNL1       -0.4697
     16 C          63.2963   89.4173   12.4253 C.3     1  UNL1        0.2468
     17 O          64.9806   89.9007   14.3436 O.co2   1  UNL1       -0.5454
     18 C          63.5711   89.6939   13.8737 C.2     1  UNL1        0.0940
     19 O          62.4364   89.7639   14.8523 O.co2   1  UNL1       -0.5454
@<TRIPOS>UNITY_ATOM_ATTR
17 1
charge -1
@<TRIPOS>BOND
     1    17    18   ar
     2    18    19   ar
     3    18    16    1
     4    16    15    1
     5    15     1    1
     6     1     2   ar
     7     2     3   ar
     8     3     4   ar
     9     4     5    1
    10     4     6   ar
    11     6     7   ar
    12     7     8    1
    13     8     9    1
    14     9    10    1
    15    10    11    1
    16    11    12    1
    17    12    13    1
    18    13    14    1
    19     7     1   ar
    20    14     8    1
@<TRIPOS>MOLECULE
*****
 19 20 0 0 0
SMALL
GASTEIGER

@<TRIPOS>ATOM
      1 C          66.3595   91.9408   13.1849 C.ar    1  UNL1        0.1351
      2 C          65.7575   90.9896   14.1763 C.ar    1  UNL1        0.0375
      3 C          64.4224   90.3639   13.9000 C.ar    1  UNL1        0.0145
      4 C          63.6894   90.6896   12.6325 C.ar    1  UNL1        0.0576
      5 CL         62.3544   90.0640   12.3562 Cl      1  UNL1       -0.0823
      6 C          64.2915   91.6409   11.6411 C.ar    1  UNL1        0.0101
      7 C          65.6265   92.2665   11.9174 C.ar    1  UNL1        0.0123
      8 C          66.2286   93.2177   10.9261 C.3     1  UNL1        0.0253
      9 C          67.2703   92.6366   10.0166 C.3     1  UNL1        0.0045
     10 C          68.0502   93.3186    8.9317 C.3     1  UNL1        0.0003
     11 C          67.9808   94.7499    8.4885 C.3     1  UNL1        0.0000
     12 C          67.1146   95.8529    9.0206 C.3     1  UNL1        0.0000
     13 C          66.1037   95.7969   10.1274 C.3     1  UNL1        0.0003
     14 C          65.7094   94.6240   10.9754 C.3     1  UNL1        0.0045
     15 O          67.6946   92.5664   13.4612 O.3     1  UNL1       -0.4697
     16 C          68.3266   92.4188   14.8135 C.3     1  UNL1        0.2468
     17 O          66.6692   93.0375   16.7162 O.co2   1  UNL1       -0.5454
     18 C          67.9172   93.3259   15.9357 C.2     1  UNL1        0.0940
     19 O          68.7560   94.5217   16.2774 O.co2   1  UNL1       -0.5454
@<TRIPOS>UNITY_ATOM_ATTR
17 1
charge -1
@<TRIPOS>BOND
     1    17    18   ar
     2    18    19   ar
     3    18    16    1
     4    16    15    1
     5    15     1    1
     6     1     2   ar
     7     2     3   ar
     8     3     4   ar
     9     4     5    1
    10     4     6   ar
    11     6     7   ar
    12     7     8    1
    13     8     9    1
    14     9    10    1
    15    10    11    1
    16    11    12    1
    17    12    13    1
    18    13    14    1
    19     7     1   ar
    20    14     8    1
@<TRIPOS>MOLECULE
*****
 19 20 0 0 0
SMALL
GASTEIGER

@<TRIPOS>ATOM
      1 C          60.7157   87.1114   10.5071 C.ar    1  UNL1        0.1351
      2 C          59.9640   86.9951    9.2142 C.ar    1  UNL1        0.0375
      3 C          60.5649   86.2457    8.0621 C.ar    1  UNL1        0.0145
      4 C          61.9174   85.6125    8.2029 C.ar    1  UNL1        0.0576
      5 CL         62.5182   84.8631    7.0509 Cl      1  UNL1       -0.0823
      6 C          62.6690   85.7288    9.4959 C.ar    1  UNL1        0.0101
      7 C          62.0682   86.4782   10.6479 C.ar    1  UNL1        0.0123
      8 C          62.8197   86.5945   11.9408 C.3     1  UNL1        0.0253
      9 C          63.1132   85.3010   12.6415 C.3     1  UNL1        0.0045
     10 C          63.8379   85.0825   13.9366 C.3     1  UNL1        0.0003
     11 C          64.4481   86.1033   14.8506 C.3     1  UNL1        0.0000
     12 C          64.4843   87.5948   14.6955 C.3     1  UNL1        0.0000
     13 C          63.9193   88.4339   13.5880 C.3     1  UNL1        0.0003
     14 C          63.1785   87.9886   12.3620 C.3     1  UNL1        0.0045
     15 O          60.1148   87.8608   11.6592 O.3     1  UNL1       -0.4697
     16 C          59.1674   88.9954   11.4036 C.3     1  UNL1        0.2468
     17 O          61.1307   90.6439   10.9818 O.co2   1  UNL1       -0.5454
     18 C          59.6871   90.3991   11.3075 C.2     1  UNL1        0.0940
     19 O          58.7631   91.5583   11.5371 O.co2   1  UNL1       -0.5454
@<TRIPOS>UNITY_ATOM_ATTR
17 1
charge -1
@<TRIPOS>BOND
     1    17    18   ar
     2    18    19   ar
     3    18    16    1
     4    16    15    1
     5    15     1    1
     6     1     2   ar
     7     2     3   ar
     8     3     4   ar
     9     4     5    1
    10     4     6   ar
    11     6     7   ar
    12     7     8    1
    13     8     9    1
    14     9    10    1
    15    10    11    1
    16    11    12    1
    17    12    13    1
    18    13    14    1
    19     7     1   ar
    20    14     8    1
@<TRIPOS>MOLECULE
*****
 19 20 0 0 0
SMALL
GASTEIGER

@<TRIPOS>ATOM
      1 C          64.9247   91.7680   12.6510 C.ar    1  UNL1        0.1351
      2 C          64.4827   91.1680   13.9528 C.ar    1  UNL1        0.0375
      3 C          65.2356   91.4742   15.2137 C.ar    1  UNL1        0.0145
      4 C          66.4302   92.3802   15.1726 C.ar    1  UNL1        0.0576
      5 CL         67.1830   92.6864   16.4334 Cl      1  UNL1       -0.0823
      6 C          66.8722   92.9802   13.8707 C.ar    1  UNL1        0.0101
      7 C          66.1194   92.6741   12.6100 C.ar    1  UNL1        0.0123
      8 C          66.5613   93.2740   11.3081 C.3     1  UNL1        0.0253
      9 C          65.9848   94.6202   10.9831 C.3     1  UNL1        0.0045
     10 C          66.2259   95.4733    9.7730 C.3     1  UNL1        0.0003
     11 C          67.1028   95.1910    8.5894 C.3     1  UNL1        0.0000
     12 C          67.9554   93.9858    8.3232 C.3     1  UNL1        0.0000
     13 C          68.1415   92.7653    9.1751 C.3     1  UNL1        0.0003
     14 C          67.5210   92.4486   10.5035 C.3     1  UNL1        0.0045
     15 O          64.1719   91.4619   11.3902 O.3     1  UNL1       -0.4697
     16 C          62.8450   90.7656   11.4592 C.3     1  UNL1        0.2468
     17 O          63.1619   88.3502   12.3621 O.co2   1  UNL1       -0.5454
     18 C          62.7653   89.2817   11.2553 C.2     1  UNL1        0.0940
     19 O          62.2889   88.7293    9.9446 O.co2   1  UNL1       -0.5454
@<TRIPOS>UNITY_ATOM_ATTR
17 1
charge -1
@<TRIPOS>BOND
     1    17    18   ar
     2    18    19   ar
     3    18    16    1
     4    16    15    1
     5    15     1    1
     6     1     2   ar
     7     2     3   ar
     8     3     4   ar
     9     4     5    1
    10     4     6   ar
    11     6     7   ar
    12     7     8    1
    13     8     9    1
    14     9    10    1
    15    10    11    1
    16    11    12    1
    17    12    13    1
    18    13    14    1
    19     7     1   ar
    20    14     8    1
@<TRIPOS>MOLECULE
*****
 19 20 0 0 0
SMALL
GASTEIGER

@<TRIPOS>ATOM
      1 C          63.7217   90.4972   12.9768 C.ar    1  UNL1        0.1351
      2 C          64.6964   91.4830   13.5496 C.ar    1  UNL1        0.0375
      3 C          65.3725   92.4771   12.6524 C.ar    1  UNL1        0.0145
      4 C          65.0738   92.4853   11.1825 C.ar    1  UNL1        0.0576
      5 CL         65.7498   93.4793   10.2853 Cl      1  UNL1       -0.0823
      6 C          64.0990   91.4994   10.6097 C.ar    1  UNL1        0.0101
      7 C          63.4230   90.5054   11.5068 C.ar    1  UNL1        0.0123
      8 C          62.4483   89.5196   10.9341 C.3     1  UNL1        0.0253
      9 C          62.6920   88.0825   11.2885 C.3     1  UNL1        0.0045
     10 C          61.9063   86.8721   10.8791 C.3     1  UNL1        0.0003
     11 C          60.6830   86.7998   10.0142 C.3     1  UNL1        0.0000
     12 C          59.9431   87.9199    9.3450 C.3     1  UNL1        0.0000
     13 C          60.2438   89.3891    9.3755 C.3     1  UNL1        0.0003
     14 C          61.3588   90.1010   10.0828 C.3     1  UNL1        0.0045
     15 O          63.0456   89.5031   13.8740 O.3     1  UNL1       -0.4697
     16 C          63.7725   88.9515   15.0644 C.3     1  UNL1        0.2468
     17 O          63.2158   90.8027   16.8003 O.co2   1  UNL1       -0.5454
     18 C          63.3560   89.3512   16.4489 C.2     1  UNL1        0.0940
     19 O          63.0797   88.2993   17.4820 O.co2   1  UNL1       -0.5454
@<TRIPOS>UNITY_ATOM_ATTR
17 1
charge -1
@<TRIPOS>BOND
     1    17    18   ar
     2    18    19   ar
     3    18    16    1
     4    16    15    1
     5    15     1    1
     6     1     2   ar
     7     2     3   ar
     8     3     4   ar
     9     4     5    1
    10     4     6   ar
    11     6     7   ar
    12     7     8    1
    13     8     9    1
    14     9    10    1
    15    10    11    1
    16    11    12    1
    17    12    13    1
    18    13    14    1
    19     7     1   ar
    20    14     8    1
@<TRIPOS>MOLECULE
*****
 19 20 0 0 0
SMALL
GASTEIGER

@<TRIPOS>ATOM
      1 C          60.6648   87.1607   10.4576 C.ar    1  UNL1        0.1351
      2 C          59.9158   87.0699    9.1611 C.ar    1  UNL1        0.0375
      3 C          60.5034   86.3130    8.0070 C.ar    1  UNL1        0.0145
      4 C          61.8399   85.6471    8.1493 C.ar    1  UNL1        0.0576
      5 CL         62.4275   84.8902    6.9953 Cl      1  UNL1       -0.0823
      6 C          62.5888   85.7379    9.4459 C.ar    1  UNL1        0.0101
      7 C          62.0013   86.4948   10.6000 C.ar    1  UNL1        0.0123
      8 C          62.7501   86.5857   11.8965 C.3     1  UNL1        0.0253
      9 C          63.1764   87.9642   12.3065 C.3     1  UNL1        0.0045
     10 C          63.9316   88.3836   13.5329 C.3     1  UNL1        0.0003
     11 C          64.4469   87.5281   14.6520 C.3     1  UNL1        0.0000
     12 C          64.3344   86.0419   14.8213 C.3     1  UNL1        0.0000
     13 C          63.6788   85.0442   13.9131 C.3     1  UNL1        0.0003
     14 C          62.9737   85.2863   12.6115 C.3     1  UNL1        0.0045
     15 O          60.0772   87.9176   11.6117 O.3     1  UNL1       -0.4697
     16 C          60.4031   89.3696   11.8003 C.3     1  UNL1        0.2468
     17 O          60.0395   90.4990    9.4889 O.co2   1  UNL1       -0.5454
     18 C          59.7266   90.4061   10.9530 C.2     1  UNL1        0.0940
     19 O          58.7372   91.3499   11.5699 O.co2   1  UNL1       -0.5454
@<TRIPOS>UNITY_ATOM_ATTR
17 1
charge -1
@<TRIPOS>BOND
     1    17    18   ar
     2    18    19   ar
     3    18    16    1
     4    16    15    1
     5    15     1    1
     6     1     2   ar
     7     2     3   ar
     8     3     4   ar
     9     4     5    1
    10     4     6   ar
    11     6     7   ar
    12     7     8    1
    13     8     9    1
    14     9    10    1
    15    10    11    1
    16    11    12    1
    17    12    13    1
    18    13    14    1
    19     7     1   ar
    20    14     8    1
@<TRIPOS>MOLECULE
*****
 19 20 0 0 0
SMALL
GASTEIGER

@<TRIPOS>ATOM
      1 C          61.8421   87.2849   10.7995 C.ar    1  UNL1        0.1351
      2 C          60.9239   86.3579   10.0594 C.ar    1  UNL1        0.0375
      3 C          60.0804   86.8787    8.9335 C.ar    1  UNL1        0.0145
      4 C          60.1552   88.3263    8.5479 C.ar    1  UNL1        0.0576
      5 CL         59.3118   88.8471    7.4221 Cl      1  UNL1       -0.0823
      6 C          61.0734   89.2533    9.2880 C.ar    1  UNL1        0.0101
      7 C          61.9169   88.7325   10.4138 C.ar    1  UNL1        0.0123
      8 C          62.8351   89.6593   11.1539 C.3     1  UNL1        0.0253
      9 C          63.1206   89.2910   12.5798 C.3     1  UNL1        0.0045
     10 C          63.9880   90.0043   13.5743 C.3     1  UNL1        0.0003
     11 C          64.7839   91.2619   13.3885 C.3     1  UNL1        0.0000
     12 C          64.9093   92.1171   12.1625 C.3     1  UNL1        0.0000
     13 C          64.2695   91.9257   10.8194 C.3     1  UNL1        0.0003
     14 C          63.3464   90.8318   10.3706 C.3     1  UNL1        0.0045
     15 O          62.6855   86.7641   11.9253 O.3     1  UNL1       -0.4697
     16 C          62.8396   85.2855   12.1252 C.3     1  UNL1        0.2468
     17 O          62.4720   84.8571   14.6613 O.co2   1  UNL1       -0.5454
     18 C          63.3337   84.7537   13.4378 C.2     1  UNL1        0.0940
     19 O          64.6896   84.1183   13.5270 O.co2   1  UNL1       -0.5454
@<TRIPOS>UNITY_ATOM_ATTR
17 1
charge -1
@<TRIPOS>BOND
     1    17    18   ar
     2    18    19   ar
     3    18    16    1
     4    16    15    1
     5    15     1    1
     6     1     2   ar
     7     2     3   ar
     8     3     4   ar
     9     4     5    1
    10     4     6   ar
    11     6     7   ar
    12     7     8    1
    13     8     9    1
    14     9    10    1
    15    10    11    1
    16    11    12    1
    17    12    13    1
    18    13    14    1
    19     7     1   ar
    20    14     8    1
