@<TRIPOS>MOLECULE
*****
 40 43 0 0 0
SMALL
GASTEIGER

@<TRIPOS>ATOM
      1 C          62.0441   87.6738   10.9709 C.ar    1  UNL1        0.0759
      2 C          62.6476   86.4585   11.6103 C.ar    1  UNL1        0.0848
      3 N          63.5083   86.6022   12.8305 N.ar    1  UNL1       -0.2755
      4 C          63.7654   87.9611   13.4111 C.ar    1  UNL1        0.3341
      5 O          64.6260   88.1048   14.6312 O.2     1  UNL1       -0.2462
      6 N          63.1619   89.1764   12.7716 N.ar    1  UNL1       -0.2470
      7 C          62.3013   89.0327   11.5515 C.ar    1  UNL1        0.2657
      8 O          61.6977   90.2480   10.9120 O.2     1  UNL1       -0.2668
      9 C          60.4110   86.1455    7.6925 C.ar    1  UNL1        0.1660
     10 C          59.4623   87.2427    7.3105 C.ar    1  UNL1        0.0392
     11 C          59.3741   88.4836    8.1486 C.ar    1  UNL1        0.0033
     12 C          60.2347   88.6273    9.3687 C.ar    1  UNL1        0.0026
     13 C          61.1835   87.5301    9.7507 C.ar    1  UNL1        0.0366
     14 C          61.2716   86.2892    8.9126 C.ar    1  UNL1        0.1739
     15 F          62.2205   85.1920    9.2947 F       1  UNL1       -0.2010
     16 C          61.7867   84.5512    6.1709 C.3     1  UNL1        0.2526
     17 O          60.4992   84.9046    6.8544 O.3     1  UNL1       -0.4692
     18 C          64.1117   85.3869   13.4699 C.3     1  UNL1        0.1394
     19 C          63.4174   84.0614   13.3654 C.ar    1  UNL1        0.0319
     20 C          63.5441   83.2451   12.1134 C.ar    1  UNL1        0.1379
     21 F          64.3650   83.7543   10.9659 F       1  UNL1       -0.2044
     22 C          62.8498   81.9196   12.0089 C.ar    1  UNL1        0.0294
     23 C          62.0288   81.4104   13.1564 C.ar    1  UNL1        0.0022
     24 C          61.9022   82.2267   14.4084 C.ar    1  UNL1        0.0037
     25 C          62.5965   83.5522   14.5129 C.ar    1  UNL1        0.0714
     26 C          62.4698   84.3686   15.7650 C.3     1  UNL1        0.4184
     27 F          62.3432   85.1848   17.0170 F       1  UNL1       -0.1659
     28 F          61.0826   84.7721   15.3616 F       1  UNL1       -0.1659
     29 F          63.8570   83.9650   16.1683 F       1  UNL1       -0.1659
     30 C          63.4190   90.5354   13.3522 C.3     1  UNL1        0.1334
     31 C          64.5639   91.3624   12.8471 C.3     1  UNL1        0.0968
     32 N          64.6056   91.7867   11.4089 N.3     1  UNL1       -0.3172
     33 H          65.4472   92.3380   11.2414 H       1  UNL1        0.1192
     34 H          63.7822   92.3500   11.1966 H       1  UNL1        0.1192
     35 C          65.6672   91.7652   13.7802 C.ar    1  UNL1       -0.0063
     36 C          65.3642   92.0496   15.2214 C.ar    1  UNL1       -0.0029
     37 C          66.4674   92.4524   16.1544 C.ar    1  UNL1       -0.0003
     38 C          67.8737   92.5708   15.6462 C.ar    1  UNL1       -0.0000
     39 C          68.1768   92.2864   14.2049 C.ar    1  UNL1       -0.0003
     40 C          67.0735   91.8836   13.2719 C.ar    1  UNL1       -0.0029
@<TRIPOS>BOND
     1    16    17    1
     2    17     9    1
     3     9    10   ar
     4    10    11   ar
     5    11    12   ar
     6    12    13   ar
     7    13     1    1
     8     1     2   ar
     9     2     3   ar
    10     3    18    1
    11    18    19    1
    12    19    20   ar
    13    20    21    1
    14    20    22   ar
    15    22    23   ar
    16    23    24   ar
    17    24    25   ar
    18    25    26    1
    19    26    27    1
    20    26    28    1
    21    26    29    1
    22     3     4   ar
    23     4     5    2
    24     4     6   ar
    25     6    30    1
    26    30    31    1
    27    31    32    1
    28    31    35    1
    29    35    36   ar
    30    36    37   ar
    31    37    38   ar
    32    38    39   ar
    33    39    40   ar
    34     6     7   ar
    35     7     8    2
    36    13    14   ar
    37    14    15    1
    38    14     9   ar
    39     7     1   ar
    40    25    19   ar
    41    40    35   ar
    42    32    33    1
    43    32    34    1
@<TRIPOS>MOLECULE
*****
 40 43 0 0 0
SMALL
GASTEIGER

@<TRIPOS>ATOM
      1 C          61.8441   87.0044   10.8011 C.ar    1  UNL1        0.0759
      2 C          62.4688   85.8265   11.4883 C.ar    1  UNL1        0.0848
      3 N          63.3056   86.0316   12.7162 N.ar    1  UNL1       -0.2755
      4 C          63.5176   87.4147   13.2569 C.ar    1  UNL1        0.3341
      5 O          64.3544   87.6198   14.4848 O.2     1  UNL1       -0.2462
      6 N          62.8929   88.5926   12.5696 N.ar    1  UNL1       -0.2470
      7 C          62.0561   88.3874   11.3418 C.ar    1  UNL1        0.2657
      8 O          61.4313   89.5653   10.6545 O.2     1  UNL1       -0.2668
      9 C          60.5905   85.5932    7.3101 C.ar    1  UNL1        0.1660
     10 C          59.3338   86.3891    7.1174 C.ar    1  UNL1        0.0392
     11 C          58.9138   87.3901    8.1525 C.ar    1  UNL1        0.0033
     12 C          59.7505   87.5952    9.3804 C.ar    1  UNL1        0.0026
     13 C          61.0073   86.7993    9.5732 C.ar    1  UNL1        0.0366
     14 C          61.4272   85.7983    8.5380 C.ar    1  UNL1        0.1739
     15 F          62.6840   85.0024    8.7308 F       1  UNL1       -0.2010
     16 C          62.4311   84.5611    5.7945 C.3     1  UNL1        0.2526
     17 O          61.0105   84.5922    6.2749 O.3     1  UNL1       -0.4692
     18 C          63.9303   84.8538   13.4034 C.3     1  UNL1        0.1394
     19 C          63.2081   83.5397   13.4447 C.ar    1  UNL1        0.0319
     20 C          62.3472   83.1937   14.6232 C.ar    1  UNL1        0.1379
     21 F          62.2084   84.1618   15.7606 F       1  UNL1       -0.2044
     22 C          61.6250   81.8796   14.6644 C.ar    1  UNL1        0.0294
     23 C          61.7638   80.9116   13.5271 C.ar    1  UNL1        0.0022
     24 C          62.6248   81.2576   12.3486 C.ar    1  UNL1        0.0037
     25 C          63.3469   82.5716   12.3074 C.ar    1  UNL1        0.0714
     26 C          64.2079   82.9176   11.1287 C.3     1  UNL1        0.4184
     27 F          65.0689   83.2636    9.9502 F       1  UNL1       -0.1659
     28 F          63.0448   82.6849   10.2107 F       1  UNL1       -0.1659
     29 F          65.3711   83.1504   12.0468 F       1  UNL1       -0.1659
     30 C          63.1049   89.9756   13.1103 C.3     1  UNL1        0.1334
     31 C          64.0028   90.9344   12.3862 C.3     1  UNL1        0.0968
     32 N          63.8340   91.1522   10.9117 N.3     1  UNL1       -0.3172
     33 H          64.5230   91.8308   10.5872 H       1  UNL1        0.1192
     34 H          62.8953   91.5051   10.7253 H       1  UNL1        0.1192
     35 C          65.0694   91.6755   13.1365 C.ar    1  UNL1       -0.0063
     36 C          65.5844   91.1351   14.4375 C.ar    1  UNL1       -0.0029
     37 C          66.6511   91.8762   15.1879 C.ar    1  UNL1       -0.0003
     38 C          67.2027   93.1577   14.6372 C.ar    1  UNL1       -0.0000
     39 C          66.6878   93.6982   13.3362 C.ar    1  UNL1       -0.0003
     40 C          65.6211   92.9571   12.5858 C.ar    1  UNL1       -0.0029
@<TRIPOS>BOND
     1    16    17    1
     2    17     9    1
     3     9    10   ar
     4    10    11   ar
     5    11    12   ar
     6    12    13   ar
     7    13     1    1
     8     1     2   ar
     9     2     3   ar
    10     3    18    1
    11    18    19    1
    12    19    20   ar
    13    20    21    1
    14    20    22   ar
    15    22    23   ar
    16    23    24   ar
    17    24    25   ar
    18    25    26    1
    19    26    27    1
    20    26    28    1
    21    26    29    1
    22     3     4   ar
    23     4     5    2
    24     4     6   ar
    25     6    30    1
    26    30    31    1
    27    31    32    1
    28    31    35    1
    29    35    36   ar
    30    36    37   ar
    31    37    38   ar
    32    38    39   ar
    33    39    40   ar
    34     6     7   ar
    35     7     8    2
    36    13    14   ar
    37    14    15    1
    38    14     9   ar
    39     7     1   ar
    40    25    19   ar
    41    40    35   ar
    42    32    33    1
    43    32    34    1
@<TRIPOS>MOLECULE
*****
 40 43 0 0 0
SMALL
GASTEIGER

@<TRIPOS>ATOM
      1 C          62.1740   87.0999   10.8544 C.ar    1  UNL1        0.0759
      2 C          62.2506   88.5592   11.1926 C.ar    1  UNL1        0.0848
      3 N          62.9283   89.0019   12.4555 N.ar    1  UNL1       -0.2755
      4 C          63.5294   87.9851   13.3801 C.ar    1  UNL1        0.3341
      5 O          64.2072   88.4277   14.6429 O.2     1  UNL1       -0.2462
      6 N          63.4528   86.5257   13.0418 N.ar    1  UNL1       -0.2470
      7 C          62.7751   86.0831   11.7790 C.ar    1  UNL1        0.2657
      8 O          62.6984   84.6237   11.4408 O.2     1  UNL1       -0.2668
      9 C          61.5661   85.3845    7.3276 C.ar    1  UNL1        0.1660
     10 C          60.1409   85.7719    7.0659 C.ar    1  UNL1        0.0392
     11 C          59.3933   86.6019    8.0670 C.ar    1  UNL1        0.0033
     12 C          60.0710   87.0446    9.3298 C.ar    1  UNL1        0.0026
     13 C          61.4962   86.6572    9.5915 C.ar    1  UNL1        0.0366
     14 C          62.2438   85.8272    8.5905 C.ar    1  UNL1        0.1739
     15 F          63.6691   85.4398    8.8523 F       1  UNL1       -0.2010
     16 C          61.6560   84.1624    5.0367 C.3     1  UNL1        0.2526
     17 O          62.3137   84.5545    6.3266 O.3     1  UNL1       -0.4692
     18 C          63.0049   90.4612   12.7937 C.3     1  UNL1        0.1394
     19 C          64.1702   91.2801   12.3229 C.ar    1  UNL1        0.0319
     20 C          64.2937   91.6445   10.8731 C.ar    1  UNL1        0.1379
     21 F          63.2520   91.1901    9.8941 F       1  UNL1       -0.2044
     22 C          65.4590   92.4633   10.4023 C.ar    1  UNL1        0.0294
     23 C          66.5006   92.9178   11.3812 C.ar    1  UNL1        0.0022
     24 C          66.3771   92.5533   12.8310 C.ar    1  UNL1        0.0037
     25 C          65.2118   91.7345   13.3018 C.ar    1  UNL1        0.0714
     26 C          65.0883   91.3701   14.7517 C.3     1  UNL1        0.4184
     27 F          64.9648   91.0056   16.2014 F       1  UNL1       -0.1659
     28 F          63.6792   91.8840   14.7608 F       1  UNL1       -0.1659
     29 F          66.4974   90.8561   14.7425 F       1  UNL1       -0.1659
     30 C          64.0539   85.5090   13.9665 C.3     1  UNL1        0.1334
     31 C          63.1645   84.6017   14.7637 C.3     1  UNL1        0.0968
     32 N          62.4914   85.1111   16.0037 N.3     1  UNL1       -0.3172
     33 H          61.9296   84.3664   16.4160 H       1  UNL1        0.1192
     34 H          61.8891   85.8988   15.7645 H       1  UNL1        0.1192
     35 C          62.9481   83.1849   14.3211 C.ar    1  UNL1       -0.0063
     36 C          61.6340   82.5103   14.5814 C.ar    1  UNL1       -0.0029
     37 C          61.4176   81.0935   14.1387 C.ar    1  UNL1       -0.0003
     38 C          62.5153   80.3514   13.4358 C.ar    1  UNL1       -0.0000
     39 C          63.8295   81.0261   13.1754 C.ar    1  UNL1       -0.0003
     40 C          64.0459   82.4428   13.6181 C.ar    1  UNL1       -0.0029
@<TRIPOS>BOND
     1    16    17    1
     2    17     9    1
     3     9    10   ar
     4    10    11   ar
     5    11    12   ar
     6    12    13   ar
     7    13     1    1
     8     1     2   ar
     9     2     3   ar
    10     3    18    1
    11    18    19    1
    12    19    20   ar
    13    20    21    1
    14    20    22   ar
    15    22    23   ar
    16    23    24   ar
    17    24    25   ar
    18    25    26    1
    19    26    27    1
    20    26    28    1
    21    26    29    1
    22     3     4   ar
    23     4     5    2
    24     4     6   ar
    25     6    30    1
    26    30    31    1
    27    31    32    1
    28    31    35    1
    29    35    36   ar
    30    36    37   ar
    31    37    38   ar
    32    38    39   ar
    33    39    40   ar
    34     6     7   ar
    35     7     8    2
    36    13    14   ar
    37    14    15    1
    38    14     9   ar
    39     7     1   ar
    40    25    19   ar
    41    40    35   ar
    42    32    33    1
    43    32    34    1
@<TRIPOS>MOLECULE
*****
 40 43 0 0 0
SMALL
GASTEIGER

@<TRIPOS>ATOM
      1 C          63.0261   85.0537   12.6898 C.ar    1  UNL1        0.0759
      2 C          62.6355   85.7825   11.4384 C.ar    1  UNL1        0.0848
      3 N          62.8079   87.2701   11.3519 N.ar    1  UNL1       -0.2755
      4 C          63.3707   88.0288   12.5170 C.ar    1  UNL1        0.3341
      5 O          63.5430   89.5163   12.4307 O.2     1  UNL1       -0.2462
      6 N          63.7613   87.2999   13.7686 N.ar    1  UNL1       -0.2470
      7 C          63.5890   85.8124   13.8550 C.ar    1  UNL1        0.2657
      8 O          63.9795   85.0835   15.1065 O.2     1  UNL1       -0.2668
      9 C          62.9331   81.2231   11.6565 C.ar    1  UNL1        0.1660
     10 C          62.5092   80.5910   12.9490 C.ar    1  UNL1        0.0392
     11 C          62.2576   81.4464   14.1552 C.ar    1  UNL1        0.0033
     12 C          62.4299   82.9340   14.0688 C.ar    1  UNL1        0.0026
     13 C          62.8538   83.5661   12.7763 C.ar    1  UNL1        0.0366
     14 C          63.1054   82.7106   11.5701 C.ar    1  UNL1        0.1739
     15 F          63.5292   83.3428   10.2775 F       1  UNL1       -0.2010
     16 C          62.7912   78.9202   10.4620 C.3     1  UNL1        0.2526
     17 O          63.1847   80.3676   10.4503 O.3     1  UNL1       -0.4692
     18 C          62.4173   87.9989   10.1004 C.3     1  UNL1        0.1394
     19 C          61.3020   87.4755    9.2448 C.ar    1  UNL1        0.0319
     20 C          61.5557   86.3472    8.2895 C.ar    1  UNL1        0.1379
     21 F          62.9247   85.7423    8.1898 F       1  UNL1       -0.2044
     22 C          60.4404   85.8238    7.4338 C.ar    1  UNL1        0.0294
     23 C          59.0714   86.4287    7.5335 C.ar    1  UNL1        0.0022
     24 C          58.8177   87.5570    8.4888 C.ar    1  UNL1        0.0037
     25 C          59.9330   88.0804    9.3444 C.ar    1  UNL1        0.0714
     26 C          59.6793   89.2087   10.2998 C.3     1  UNL1        0.4184
     27 F          59.4256   90.3370   11.2550 F       1  UNL1       -0.1659
     28 F          59.4131   88.2204   11.3963 F       1  UNL1       -0.1659
     29 F          59.9454   90.1969    9.2032 F       1  UNL1       -0.1659
     30 C          64.3242   88.0587   14.9337 C.3     1  UNL1        0.1334
     31 C          63.7976   89.4236   15.2648 C.3     1  UNL1        0.0968
     32 N          62.3335   89.6196   15.5262 N.3     1  UNL1       -0.3172
     33 H          62.1538   90.6019   15.7339 H       1  UNL1        0.1192
     34 H          62.0504   89.0467   16.3212 H       1  UNL1        0.1192
     35 C          64.7350   90.5925   15.3346 C.ar    1  UNL1       -0.0063
     36 C          65.8308   90.7367   14.3205 C.ar    1  UNL1       -0.0029
     37 C          66.7682   91.9057   14.3903 C.ar    1  UNL1       -0.0003
     38 C          66.6097   92.9304   15.4741 C.ar    1  UNL1       -0.0000
     39 C          65.5138   92.7863   16.4882 C.ar    1  UNL1       -0.0003
     40 C          64.5765   91.6174   16.4185 C.ar    1  UNL1       -0.0029
@<TRIPOS>BOND
     1    16    17    1
     2    17     9    1
     3     9    10   ar
     4    10    11   ar
     5    11    12   ar
     6    12    13   ar
     7    13     1    1
     8     1     2   ar
     9     2     3   ar
    10     3    18    1
    11    18    19    1
    12    19    20   ar
    13    20    21    1
    14    20    22   ar
    15    22    23   ar
    16    23    24   ar
    17    24    25   ar
    18    25    26    1
    19    26    27    1
    20    26    28    1
    21    26    29    1
    22     3     4   ar
    23     4     5    2
    24     4     6   ar
    25     6    30    1
    26    30    31    1
    27    31    32    1
    28    31    35    1
    29    35    36   ar
    30    36    37   ar
    31    37    38   ar
    32    38    39   ar
    33    39    40   ar
    34     6     7   ar
    35     7     8    2
    36    13    14   ar
    37    14    15    1
    38    14     9   ar
    39     7     1   ar
    40    25    19   ar
    41    40    35   ar
    42    32    33    1
    43    32    34    1
@<TRIPOS>MOLECULE
*****
 40 43 0 0 0
SMALL
GASTEIGER

@<TRIPOS>ATOM
      1 C          62.1428   87.7958   11.0549 C.ar    1  UNL1        0.0759
      2 C          62.4398   89.1962   11.5027 C.ar    1  UNL1        0.0848
      3 N          63.2799   89.4312   12.7230 N.ar    1  UNL1       -0.2755
      4 C          63.8229   88.2658   13.4955 C.ar    1  UNL1        0.3341
      5 O          64.6629   88.5007   14.7158 O.2     1  UNL1       -0.2462
      6 N          63.5259   86.8653   13.0477 N.ar    1  UNL1       -0.2470
      7 C          62.6859   86.6303   11.8275 C.ar    1  UNL1        0.2657
      8 O          62.3888   85.2298   11.3796 O.2     1  UNL1       -0.2668
      9 C          59.7205   88.4666    7.9837 C.ar    1  UNL1        0.1660
     10 C          59.6227   87.0909    7.3941 C.ar    1  UNL1        0.0392
     11 C          60.3649   85.9501    8.0247 C.ar    1  UNL1        0.0033
     12 C          61.2050   86.1850    9.2450 C.ar    1  UNL1        0.0026
     13 C          61.3028   87.5608    9.8346 C.ar    1  UNL1        0.0366
     14 C          60.5605   88.7016    9.2040 C.ar    1  UNL1        0.1739
     15 F          60.6584   90.0774    9.7937 F       1  UNL1       -0.2010
     16 C          59.3126   90.0387    5.9559 C.3     1  UNL1        0.2526
     17 O          58.9783   89.6074    7.3531 O.3     1  UNL1       -0.4692
     18 C          63.5769   90.8317   13.1708 C.3     1  UNL1        0.1394
     19 C          64.6205   91.6411   12.4597 C.ar    1  UNL1        0.0319
     20 C          64.4697   91.9411   10.9978 C.ar    1  UNL1        0.1379
     21 F          63.2751   91.4317   10.2469 F       1  UNL1       -0.2044
     22 C          65.5133   92.7504   10.2866 C.ar    1  UNL1        0.0294
     23 C          66.7078   93.2598   11.0374 C.ar    1  UNL1        0.0022
     24 C          66.8587   92.9598   12.4993 C.ar    1  UNL1        0.0037
     25 C          65.8150   92.1504   13.2104 C.ar    1  UNL1        0.0714
     26 C          65.9659   91.8504   14.6724 C.3     1  UNL1        0.4184
     27 F          66.1168   91.5504   16.1343 F       1  UNL1       -0.1659
     28 F          65.3494   93.1760   15.0081 F       1  UNL1       -0.1659
     29 F          66.5824   90.5248   14.3367 F       1  UNL1       -0.1659
     30 C          64.0689   85.6998   13.8202 C.3     1  UNL1        0.1334
     31 C          63.1326   84.7775   14.5431 C.3     1  UNL1        0.0968
     32 N          62.3757   85.2661   15.7425 N.3     1  UNL1       -0.3172
     33 H          61.7912   84.5132   16.1056 H       1  UNL1        0.1192
     34 H          61.7868   86.0547   15.4747 H       1  UNL1        0.1192
     35 C          62.9533   83.3665   14.0668 C.ar    1  UNL1       -0.0063
     36 C          63.9035   82.7880   13.0606 C.ar    1  UNL1       -0.0029
     37 C          63.7242   81.3770   12.5843 C.ar    1  UNL1       -0.0003
     38 C          62.5946   80.5444   13.1141 C.ar    1  UNL1       -0.0000
     39 C          61.6443   81.1229   14.1204 C.ar    1  UNL1       -0.0003
     40 C          61.8236   82.5339   14.5967 C.ar    1  UNL1       -0.0029
@<TRIPOS>BOND
     1    16    17    1
     2    17     9    1
     3     9    10   ar
     4    10    11   ar
     5    11    12   ar
     6    12    13   ar
     7    13     1    1
     8     1     2   ar
     9     2     3   ar
    10     3    18    1
    11    18    19    1
    12    19    20   ar
    13    20    21    1
    14    20    22   ar
    15    22    23   ar
    16    23    24   ar
    17    24    25   ar
    18    25    26    1
    19    26    27    1
    20    26    28    1
    21    26    29    1
    22     3     4   ar
    23     4     5    2
    24     4     6   ar
    25     6    30    1
    26    30    31    1
    27    31    32    1
    28    31    35    1
    29    35    36   ar
    30    36    37   ar
    31    37    38   ar
    32    38    39   ar
    33    39    40   ar
    34     6     7   ar
    35     7     8    2
    36    13    14   ar
    37    14    15    1
    38    14     9   ar
    39     7     1   ar
    40    25    19   ar
    41    40    35   ar
    42    32    33    1
    43    32    34    1
@<TRIPOS>MOLECULE
*****
 40 43 0 0 0
SMALL
GASTEIGER

@<TRIPOS>ATOM
      1 C          63.4830   85.7245   12.9372 C.ar    1  UNL1        0.0759
      2 C          62.9566   86.3830   11.6966 C.ar    1  UNL1        0.0848
      3 N          62.9692   87.8784   11.5782 N.ar    1  UNL1       -0.2755
      4 C          63.5082   88.7150   12.7005 C.ar    1  UNL1        0.3341
      5 O          63.5208   90.2103   12.5822 O.2     1  UNL1       -0.2462
      6 N          64.0346   88.0563   13.9412 N.ar    1  UNL1       -0.2470
      7 C          64.0220   86.5611   14.0595 C.ar    1  UNL1        0.2657
      8 O          64.5484   85.9024   15.3001 O.2     1  UNL1       -0.2668
      9 C          62.4099   82.0562   14.0062 C.ar    1  UNL1        0.1660
     10 C          63.4452   81.2387   13.2923 C.ar    1  UNL1        0.0392
     11 C          64.4931   81.9163   12.4600 C.ar    1  UNL1        0.0033
     12 C          64.5057   83.4116   12.3416 C.ar    1  UNL1        0.0026
     13 C          63.4704   84.2291   13.0556 C.ar    1  UNL1        0.0366
     14 C          62.4226   83.5515   13.8879 C.ar    1  UNL1        0.1739
     15 F          61.3872   84.3691   14.6018 F       1  UNL1       -0.2010
     16 C          60.2913   80.5623   14.1775 C.3     1  UNL1        0.2526
     17 O          61.3621   81.3786   14.8385 O.3     1  UNL1       -0.4692
     18 C          62.4428   88.5370   10.3376 C.3     1  UNL1        0.1394
     19 C          61.3962   87.8509    9.5107 C.ar    1  UNL1        0.0319
     20 C          61.7832   86.7347    8.5864 C.ar    1  UNL1        0.1379
     21 F          63.2170   86.3046    8.4891 F       1  UNL1       -0.2044
     22 C          60.7366   86.0487    7.7595 C.ar    1  UNL1        0.0294
     23 C          59.3029   86.4788    7.8568 C.ar    1  UNL1        0.0022
     24 C          58.9159   87.5950    8.7811 C.ar    1  UNL1        0.0037
     25 C          59.9625   88.2810    9.6080 C.ar    1  UNL1        0.0714
     26 C          59.5754   89.3973   10.5323 C.3     1  UNL1        0.4184
     27 F          59.1883   90.5135   11.4565 F       1  UNL1       -0.1659
     28 F          59.3140   88.4026   11.6242 F       1  UNL1       -0.1659
     29 F          59.8368   90.3920    9.4405 F       1  UNL1       -0.1659
     30 C          64.5735   88.8930   15.0635 C.3     1  UNL1        0.1334
     31 C          64.4137   90.3841   15.0311 C.3     1  UNL1        0.0968
     32 N          63.0429   90.9923   15.0613 N.3     1  UNL1       -0.3172
     33 H          63.1213   92.0089   15.0329 H       1  UNL1        0.1192
     34 H          62.5653   90.7119   15.9178 H       1  UNL1        0.1192
     35 C          65.6247   91.2670   14.9685 C.ar    1  UNL1       -0.0063
     36 C          65.9409   92.1885   16.1090 C.ar    1  UNL1       -0.0029
     37 C          67.1519   93.0714   16.0464 C.ar    1  UNL1       -0.0003
     38 C          68.0468   93.0328   14.8432 C.ar    1  UNL1       -0.0000
     39 C          67.7307   92.1113   13.7026 C.ar    1  UNL1       -0.0003
     40 C          66.5197   91.2284   13.7652 C.ar    1  UNL1       -0.0029
@<TRIPOS>BOND
     1    16    17    1
     2    17     9    1
     3     9    10   ar
     4    10    11   ar
     5    11    12   ar
     6    12    13   ar
     7    13     1    1
     8     1     2   ar
     9     2     3   ar
    10     3    18    1
    11    18    19    1
    12    19    20   ar
    13    20    21    1
    14    20    22   ar
    15    22    23   ar
    16    23    24   ar
    17    24    25   ar
    18    25    26    1
    19    26    27    1
    20    26    28    1
    21    26    29    1
    22     3     4   ar
    23     4     5    2
    24     4     6   ar
    25     6    30    1
    26    30    31    1
    27    31    32    1
    28    31    35    1
    29    35    36   ar
    30    36    37   ar
    31    37    38   ar
    32    38    39   ar
    33    39    40   ar
    34     6     7   ar
    35     7     8    2
    36    13    14   ar
    37    14    15    1
    38    14     9   ar
    39     7     1   ar
    40    25    19   ar
    41    40    35   ar
    42    32    33    1
    43    32    34    1
@<TRIPOS>MOLECULE
*****
 40 43 0 0 0
SMALL
GASTEIGER

@<TRIPOS>ATOM
      1 C          61.9251   86.7299   10.5809 C.ar    1  UNL1        0.0759
      2 C          62.3533   87.8197   11.5184 C.ar    1  UNL1        0.0848
      3 N          61.6613   89.1502   11.4878 N.ar    1  UNL1       -0.2755
      4 C          60.5412   89.3909   10.5196 C.ar    1  UNL1        0.3341
      5 O          59.8492   90.7214   10.4890 O.2     1  UNL1       -0.2462
      6 N          60.1130   88.3011    9.5821 N.ar    1  UNL1       -0.2470
      7 C          60.8050   86.9706    9.6127 C.ar    1  UNL1        0.2657
      8 O          60.3769   85.8807    8.6751 O.2     1  UNL1       -0.2668
      9 C          63.3235   83.2599   11.9051 C.ar    1  UNL1        0.1660
     10 C          64.0010   82.7384   10.6727 C.ar    1  UNL1        0.0392
     11 C          63.9867   83.5474    9.4097 C.ar    1  UNL1        0.0033
     12 C          63.2947   84.8779    9.3790 C.ar    1  UNL1        0.0026
     13 C          62.6171   85.3994   10.6114 C.ar    1  UNL1        0.0366
     14 C          62.6315   84.5904   11.8745 C.ar    1  UNL1        0.1739
     15 F          61.9539   85.1119   13.1070 F       1  UNL1       -0.2010
     16 C          62.1384   81.6351   13.5500 C.3     1  UNL1        0.2526
     17 O          63.3378   82.4509   13.1682 O.3     1  UNL1       -0.4692
     18 C          62.0894   90.2400   12.4254 C.3     1  UNL1        0.1394
     19 C          63.4421   90.8705   12.2747 C.ar    1  UNL1        0.0319
     20 C          63.8013   91.5803   11.0031 C.ar    1  UNL1        0.1379
     21 F          62.8078   91.6596    9.8820 F       1  UNL1       -0.2044
     22 C          65.1540   92.2108   10.8524 C.ar    1  UNL1        0.0294
     23 C          66.1475   92.1315   11.9734 C.ar    1  UNL1        0.0022
     24 C          65.7883   91.4217   13.2450 C.ar    1  UNL1        0.0037
     25 C          64.4356   90.7912   13.3957 C.ar    1  UNL1        0.0714
     26 C          64.0764   90.0814   14.6674 C.3     1  UNL1        0.4184
     27 F          63.7173   89.3715   15.9391 F       1  UNL1       -0.1659
     28 F          63.6656   91.3873   15.2804 F       1  UNL1       -0.1659
     29 F          64.4873   88.7754   14.0545 F       1  UNL1       -0.1659
     30 C          58.9929   88.5418    8.6139 C.3     1  UNL1        0.1334
     31 C          59.2372   88.4198    7.1390 C.3     1  UNL1        0.0968
     32 N          59.5345   87.0788    6.5363 N.3     1  UNL1       -0.3172
     33 H          59.6727   87.1809    5.5309 H       1  UNL1        0.1192
     34 H          58.7525   86.4472    6.7096 H       1  UNL1        0.1192
     35 C          59.1841   89.6390    6.2667 C.ar    1  UNL1       -0.0063
     36 C          57.8658   90.2865    5.9621 C.ar    1  UNL1       -0.0029
     37 C          57.8128   91.5056    5.0898 C.ar    1  UNL1       -0.0003
     38 C          59.0780   92.0772    4.5220 C.ar    1  UNL1       -0.0000
     39 C          60.3964   91.4297    4.8266 C.ar    1  UNL1       -0.0003
     40 C          60.4494   90.2106    5.6989 C.ar    1  UNL1       -0.0029
@<TRIPOS>BOND
     1    16    17    1
     2    17     9    1
     3     9    10   ar
     4    10    11   ar
     5    11    12   ar
     6    12    13   ar
     7    13     1    1
     8     1     2   ar
     9     2     3   ar
    10     3    18    1
    11    18    19    1
    12    19    20   ar
    13    20    21    1
    14    20    22   ar
    15    22    23   ar
    16    23    24   ar
    17    24    25   ar
    18    25    26    1
    19    26    27    1
    20    26    28    1
    21    26    29    1
    22     3     4   ar
    23     4     5    2
    24     4     6   ar
    25     6    30    1
    26    30    31    1
    27    31    32    1
    28    31    35    1
    29    35    36   ar
    30    36    37   ar
    31    37    38   ar
    32    38    39   ar
    33    39    40   ar
    34     6     7   ar
    35     7     8    2
    36    13    14   ar
    37    14    15    1
    38    14     9   ar
    39     7     1   ar
    40    25    19   ar
    41    40    35   ar
    42    32    33    1
    43    32    34    1
@<TRIPOS>MOLECULE
*****
 40 43 0 0 0
SMALL
GASTEIGER

@<TRIPOS>ATOM
      1 C          63.3386   88.3574   13.5884 C.ar    1  UNL1        0.0759
      2 C          64.0527   87.0477   13.7448 C.ar    1  UNL1        0.0848
      3 N          63.6200   85.8569   12.9418 N.ar    1  UNL1       -0.2755
      4 C          62.4732   85.9759   11.9823 C.ar    1  UNL1        0.3341
      5 O          62.0405   84.7852   11.1792 O.2     1  UNL1       -0.2462
      6 N          61.7591   87.2858   11.8258 N.ar    1  UNL1       -0.2470
      7 C          62.1918   88.4765   12.6289 C.ar    1  UNL1        0.2657
      8 O          61.4777   89.7864   12.4725 O.2     1  UNL1       -0.2668
      9 C          64.9702   91.8485   14.5373 C.ar    1  UNL1        0.1660
     10 C          64.6367   91.9297   15.9975 C.ar    1  UNL1        0.0392
     11 C          63.8704   90.8202   16.6546 C.ar    1  UNL1        0.0033
     12 C          63.4377   89.6295   15.8516 C.ar    1  UNL1        0.0026
     13 C          63.7713   89.5482   14.3915 C.ar    1  UNL1        0.0366
     14 C          64.5375   90.6577   13.7343 C.ar    1  UNL1        0.1739
     15 F          64.8711   90.5764   12.2741 F       1  UNL1       -0.2010
     16 C          66.9694   93.5078   14.5341 C.3     1  UNL1        0.2526
     17 O          65.7365   92.9580   13.8802 O.3     1  UNL1       -0.4692
     18 C          64.3341   84.5471   13.0982 C.3     1  UNL1        0.1394
     19 C          63.5501   83.2714   13.1873 C.ar    1  UNL1        0.0319
     20 C          63.6268   82.2649   12.0777 C.ar    1  UNL1        0.1379
     21 F          64.4875   82.5342   10.8790 F       1  UNL1       -0.2044
     22 C          62.8428   80.9892   12.1667 C.ar    1  UNL1        0.0294
     23 C          61.9822   80.7199   13.3654 C.ar    1  UNL1        0.0022
     24 C          61.9055   81.7264   14.4749 C.ar    1  UNL1        0.0037
     25 C          62.6895   83.0021   14.3859 C.ar    1  UNL1        0.0714
     26 C          62.6127   84.0085   15.4955 C.3     1  UNL1        0.4184
     27 F          62.5360   85.0149   16.6051 F       1  UNL1       -0.1659
     28 F          63.9447   83.5460   16.0072 F       1  UNL1       -0.1659
     29 F          61.2808   84.4711   14.9839 F       1  UNL1       -0.1659
     30 C          60.6123   87.4049   10.8663 C.3     1  UNL1        0.1334
     31 C          60.8714   87.7235    9.4237 C.3     1  UNL1        0.0968
     32 N          60.7623   89.1381    8.9367 N.3     1  UNL1       -0.3172
     33 H          60.9698   89.1710    7.9385 H       1  UNL1        0.1192
     34 H          61.4274   89.7238    9.4417 H       1  UNL1        0.1192
     35 C          61.2396   86.6276    8.4680 C.ar    1  UNL1       -0.0063
     36 C          60.2087   86.0719    7.5308 C.ar    1  UNL1       -0.0029
     37 C          60.5769   84.9760    6.5751 C.ar    1  UNL1       -0.0003
     38 C          61.9761   84.4357    6.5565 C.ar    1  UNL1       -0.0000
     39 C          63.0071   84.9914    7.4938 C.ar    1  UNL1       -0.0003
     40 C          62.6389   86.0873    8.4495 C.ar    1  UNL1       -0.0029
@<TRIPOS>BOND
     1    16    17    1
     2    17     9    1
     3     9    10   ar
     4    10    11   ar
     5    11    12   ar
     6    12    13   ar
     7    13     1    1
     8     1     2   ar
     9     2     3   ar
    10     3    18    1
    11    18    19    1
    12    19    20   ar
    13    20    21    1
    14    20    22   ar
    15    22    23   ar
    16    23    24   ar
    17    24    25   ar
    18    25    26    1
    19    26    27    1
    20    26    28    1
    21    26    29    1
    22     3     4   ar
    23     4     5    2
    24     4     6   ar
    25     6    30    1
    26    30    31    1
    27    31    32    1
    28    31    35    1
    29    35    36   ar
    30    36    37   ar
    31    37    38   ar
    32    38    39   ar
    33    39    40   ar
    34     6     7   ar
    35     7     8    2
    36    13    14   ar
    37    14    15    1
    38    14     9   ar
    39     7     1   ar
    40    25    19   ar
    41    40    35   ar
    42    32    33    1
    43    32    34    1
@<TRIPOS>MOLECULE
*****
 40 43 0 0 0
SMALL
GASTEIGER

@<TRIPOS>ATOM
      1 C          63.9259   89.2777   13.8431 C.ar    1  UNL1        0.0759
      2 C          63.5354   89.5620   12.4230 C.ar    1  UNL1        0.0848
      3 N          63.0537   88.4488   11.5404 N.ar    1  UNL1       -0.2755
      4 C          62.9625   87.0514   12.0779 C.ar    1  UNL1        0.3341
      5 O          62.4809   85.9383   11.1954 O.2     1  UNL1       -0.2462
      6 N          63.3530   86.7671   13.4981 N.ar    1  UNL1       -0.2470
      7 C          63.8347   87.8803   14.3806 C.ar    1  UNL1        0.2657
      8 O          64.2252   87.5960   15.8008 O.2     1  UNL1       -0.2668
      9 C          66.0521   92.3499   15.1813 C.ar    1  UNL1        0.1660
     10 C          65.3710   92.6170   16.4908 C.ar    1  UNL1        0.0392
     11 C          64.2083   91.7710   16.9177 C.ar    1  UNL1        0.0033
     12 C          63.7266   90.6579   16.0352 C.ar    1  UNL1        0.0026
     13 C          64.4076   90.3908   14.7257 C.ar    1  UNL1        0.0366
     14 C          65.5704   91.2368   14.2988 C.ar    1  UNL1        0.1739
     15 F          66.2514   90.9697   12.9892 F       1  UNL1       -0.2010
     16 C          68.3176   93.4998   15.7247 C.3     1  UNL1        0.2526
     17 O          67.2148   93.1959   14.7544 O.3     1  UNL1       -0.4692
     18 C          62.6633   88.7331   10.1203 C.3     1  UNL1        0.1394
     19 C          61.5393   87.9700    9.4844 C.ar    1  UNL1        0.0319
     20 C          61.8353   86.7815    8.6185 C.ar    1  UNL1        0.1379
     21 F          63.2553   86.3561    8.3884 F       1  UNL1       -0.2044
     22 C          60.7114   86.0183    7.9825 C.ar    1  UNL1        0.0294
     23 C          59.2915   86.4437    8.2125 C.ar    1  UNL1        0.0022
     24 C          58.9955   87.6322    9.0784 C.ar    1  UNL1        0.0037
     25 C          60.1195   88.3953    9.7144 C.ar    1  UNL1        0.0714
     26 C          59.8234   89.5838   10.5803 C.3     1  UNL1        0.4184
     27 F          59.5274   90.7723   11.4463 F       1  UNL1       -0.1659
     28 F          59.9374   90.4831    9.3852 F       1  UNL1       -0.1659
     29 F          59.7094   88.6846   11.7755 F       1  UNL1       -0.1659
     30 C          63.2618   85.3697   14.0357 C.3     1  UNL1        0.1334
     31 C          64.2980   84.3524   13.6596 C.3     1  UNL1        0.0968
     32 N          65.6838   84.4487   14.2256 N.3     1  UNL1       -0.3172
     33 H          66.2520   83.6817   13.8660 H       1  UNL1        0.1192
     34 H          65.6402   84.3916   15.2431 H       1  UNL1        0.1192
     35 C          63.9483   83.2387   12.7175 C.ar    1  UNL1       -0.0063
     36 C          64.3846   83.3043   11.2839 C.ar    1  UNL1       -0.0029
     37 C          64.0350   82.1906   10.3419 C.ar    1  UNL1       -0.0003
     38 C          63.2491   81.0114   10.8334 C.ar    1  UNL1       -0.0000
     39 C          62.8127   80.9458   12.2671 C.ar    1  UNL1       -0.0003
     40 C          63.1623   82.0594   13.2092 C.ar    1  UNL1       -0.0029
@<TRIPOS>BOND
     1    16    17    1
     2    17     9    1
     3     9    10   ar
     4    10    11   ar
     5    11    12   ar
     6    12    13   ar
     7    13     1    1
     8     1     2   ar
     9     2     3   ar
    10     3    18    1
    11    18    19    1
    12    19    20   ar
    13    20    21    1
    14    20    22   ar
    15    22    23   ar
    16    23    24   ar
    17    24    25   ar
    18    25    26    1
    19    26    27    1
    20    26    28    1
    21    26    29    1
    22     3     4   ar
    23     4     5    2
    24     4     6   ar
    25     6    30    1
    26    30    31    1
    27    31    32    1
    28    31    35    1
    29    35    36   ar
    30    36    37   ar
    31    37    38   ar
    32    38    39   ar
    33    39    40   ar
    34     6     7   ar
    35     7     8    2
    36    13    14   ar
    37    14    15    1
    38    14     9   ar
    39     7     1   ar
    40    25    19   ar
    41    40    35   ar
    42    32    33    1
    43    32    34    1
