@<TRIPOS>MOLECULE
*****
 27 30 0 0 0
SMALL
GASTEIGER

@<TRIPOS>ATOM
      1 C          63.1584   87.1308   16.3262 C.ar    1  UNL1        0.1386
      2 C          62.8594   88.5109   16.8322 C.ar    1  UNL1        0.0369
      3 C          63.4346   89.7070   16.1334 C.ar    1  UNL1        0.0043
      4 C          64.3089   89.5230   14.9284 C.ar    1  UNL1        0.0153
      5 C          64.6079   88.1430   14.4223 C.ar    1  UNL1        0.0043
      6 C          64.0326   86.9469   15.1213 C.ar    1  UNL1        0.0369
      7 C          64.8841   90.7192   14.2295 C.2     1  UNL1        0.0766
      8 N          65.8974   91.5789   14.9253 N.2     1  UNL1       -0.1801
      9 N          66.4726   92.7750   14.2265 N.am    1  UNL1       -0.1793
     10 C          67.4860   93.6347   14.9223 C.3     1  UNL1        0.1428
     11 C          66.0346   93.1114   12.8318 C.2     1  UNL1        0.2442
     12 O          66.6099   94.3076   12.1330 O.2     1  UNL1       -0.2731
     13 C          65.0213   92.2517   12.1361 C.3     1  UNL1        0.0840
     14 C          64.4021   92.3340   10.7723 C.3     1  UNL1        0.0095
     15 C          63.4442   91.1887   10.6283 C.3     1  UNL1        0.0009
     16 C          63.4714   90.3986   11.9031 C.3     1  UNL1        0.0065
     17 C          64.4461   91.0556   12.8349 C.3     1  UNL1        0.0505
     18 O          62.5832   85.9348   17.0250 O.3     1  UNL1       -0.4754
     19 C          62.7715   84.5644   16.4446 C.3     1  UNL1        0.2068
     20 C          62.0559   84.1790   15.1841 C.3     1  UNL1        0.0646
     21 C          62.3380   82.8558   14.5360 C.3     1  UNL1        0.0759
     22 C          62.5831   80.1776   12.6877 C.3     1  UNL1        0.0173
     23 C          62.9421   81.5729   12.2702 C.3     1  UNL1        0.0576
     24 C          63.4769   81.9821   10.9298 C.3     1  UNL1        0.0174
     25 C          63.6947   83.4659   10.9510 C.3     1  UNL1        0.0187
     26 C          63.2946   83.9739   12.3045 C.3     1  UNL1        0.0721
     27 N          62.8295   82.8040   13.1198 N.3     1  UNL1       -0.2738
@<TRIPOS>BOND
     1    23    22    1
     2    23    24    1
     3    24    25    1
     4    25    26    1
     5    26    27    1
     6    27    21    1
     7    21    20    1
     8    20    19    1
     9    19    18    1
    10    18     1    1
    11     1     2   ar
    12     2     3   ar
    13     3     4   ar
    14     4     7    1
    15     7     8    2
    16     8     9    1
    17     9    10    1
    18     9    11   am
    19    11    12    2
    20    11    13    1
    21    13    14    1
    22    14    15    1
    23    15    16    1
    24    16    17    1
    25     4     5   ar
    26     5     6   ar
    27    27    23    1
    28     6     1   ar
    29    17     7    1
    30    17    13    1
@<TRIPOS>MOLECULE
*****
 27 30 0 0 0
SMALL
GASTEIGER

@<TRIPOS>ATOM
      1 C          64.3763   91.2212   13.4991 C.ar    1  UNL1        0.1386
      2 C          64.0252   89.8152   13.8865 C.ar    1  UNL1        0.0369
      3 C          63.2597   88.9441   12.9354 C.ar    1  UNL1        0.0043
      4 C          62.8451   89.4788   11.5965 C.ar    1  UNL1        0.0153
      5 C          63.1961   90.8847   11.2090 C.ar    1  UNL1        0.0043
      6 C          63.9617   91.7559   12.1603 C.ar    1  UNL1        0.0369
      7 C          62.0795   88.6075   10.6453 C.2     1  UNL1        0.0766
      8 N          61.2347   89.2293    9.5731 N.2     1  UNL1       -0.1801
      9 N          60.4692   88.3581    8.6219 N.am    1  UNL1       -0.1793
     10 C          59.6244   88.9799    7.5496 C.3     1  UNL1        0.1428
     11 C          60.5484   86.8650    8.7428 C.2     1  UNL1        0.2442
     12 O          59.7828   85.9938    7.7915 O.2     1  UNL1       -0.2731
     13 C          61.3932   86.2433    9.8151 C.3     1  UNL1        0.0840
     14 C          61.6640   84.8128   10.1763 C.3     1  UNL1        0.0095
     15 C          62.5969   84.8000   11.3508 C.3     1  UNL1        0.0009
     16 C          62.9027   86.2225   11.7155 C.3     1  UNL1        0.0065
     17 C          62.1588   87.1145   10.7663 C.3     1  UNL1        0.0505
     18 O          65.1418   92.0924   14.4503 O.3     1  UNL1       -0.4754
     19 C          66.5387   91.7197   14.8501 C.3     1  UNL1        0.2068
     20 C          67.7078   92.2536   14.0768 C.3     1  UNL1        0.0646
     21 C          67.7928   92.0299   12.5960 C.3     1  UNL1        0.0759
     22 C          68.3258   92.1660    9.3793 C.3     1  UNL1        0.0173
     23 C          67.4685   93.1080   10.1716 C.3     1  UNL1        0.0576
     24 C          66.7058   94.2779    9.6245 C.3     1  UNL1        0.0174
     25 C          65.9894   94.9384   10.7648 C.3     1  UNL1        0.0187
     26 C          66.3094   94.1767   12.0167 C.3     1  UNL1        0.0721
     27 N          67.2236   93.0454   11.6502 N.3     1  UNL1       -0.2738
@<TRIPOS>BOND
     1    23    22    1
     2    23    24    1
     3    24    25    1
     4    25    26    1
     5    26    27    1
     6    27    21    1
     7    21    20    1
     8    20    19    1
     9    19    18    1
    10    18     1    1
    11     1     2   ar
    12     2     3   ar
    13     3     4   ar
    14     4     7    1
    15     7     8    2
    16     8     9    1
    17     9    10    1
    18     9    11   am
    19    11    12    2
    20    11    13    1
    21    13    14    1
    22    14    15    1
    23    15    16    1
    24    16    17    1
    25     4     5   ar
    26     5     6   ar
    27    27    23    1
    28     6     1   ar
    29    17     7    1
    30    17    13    1
@<TRIPOS>MOLECULE
*****
 27 30 0 0 0
SMALL
GASTEIGER

@<TRIPOS>ATOM
      1 C          64.5615   91.0233   14.2791 C.ar    1  UNL1        0.1386
      2 C          64.8746   89.8289   15.1309 C.ar    1  UNL1        0.0369
      3 C          64.4802   88.4564   14.6723 C.ar    1  UNL1        0.0043
      4 C          63.7724   88.2781   13.3617 C.ar    1  UNL1        0.0153
      5 C          63.4593   89.4723   12.5099 C.ar    1  UNL1        0.0043
      6 C          63.8538   90.8449   12.9686 C.ar    1  UNL1        0.0369
      7 C          63.3780   86.9054   12.9031 C.2     1  UNL1        0.0766
      8 N          63.7017   85.7100   13.7493 N.2     1  UNL1       -0.1801
      9 N          63.3072   84.3375   13.2908 N.am    1  UNL1       -0.1793
     10 C          63.6310   83.1420   14.1371 C.3     1  UNL1        0.1428
     11 C          62.5890   84.1602   11.9858 C.2     1  UNL1        0.2442
     12 O          62.1945   82.7876   11.5272 O.2     1  UNL1       -0.2731
     13 C          62.2652   85.3556   11.1396 C.3     1  UNL1        0.0840
     14 C          61.5712   85.4905    9.8167 C.3     1  UNL1        0.0095
     15 C          61.5368   86.9465    9.4577 C.3     1  UNL1        0.0009
     16 C          62.2095   87.7115   10.5587 C.3     1  UNL1        0.0065
     17 C          62.6597   86.7283   11.5982 C.3     1  UNL1        0.0505
     18 O          64.9559   92.3958   14.7377 O.3     1  UNL1       -0.4754
     19 C          66.2865   92.9649   14.3430 C.3     1  UNL1        0.2068
     20 C          66.3942   93.8569   13.1420 C.3     1  UNL1        0.0646
     21 C          66.6440   93.2637   11.7871 C.3     1  UNL1        0.0759
     22 C          68.3609   92.4486    9.1343 C.3     1  UNL1        0.0173
     23 C          67.7302   93.7832    9.4006 C.3     1  UNL1        0.0576
     24 C          67.7780   94.9775    8.4943 C.3     1  UNL1        0.0174
     25 C          67.0184   96.0903    9.1535 C.3     1  UNL1        0.0187
     26 C          66.5011   95.5837   10.4673 C.3     1  UNL1        0.0721
     27 N          66.9410   94.1579   10.6200 N.3     1  UNL1       -0.2738
@<TRIPOS>BOND
     1    23    22    1
     2    23    24    1
     3    24    25    1
     4    25    26    1
     5    26    27    1
     6    27    21    1
     7    21    20    1
     8    20    19    1
     9    19    18    1
    10    18     1    1
    11     1     2   ar
    12     2     3   ar
    13     3     4   ar
    14     4     7    1
    15     7     8    2
    16     8     9    1
    17     9    10    1
    18     9    11   am
    19    11    12    2
    20    11    13    1
    21    13    14    1
    22    14    15    1
    23    15    16    1
    24    16    17    1
    25     4     5   ar
    26     5     6   ar
    27    27    23    1
    28     6     1   ar
    29    17     7    1
    30    17    13    1
@<TRIPOS>MOLECULE
*****
 27 30 0 0 0
SMALL
GASTEIGER

@<TRIPOS>ATOM
      1 C          62.9510   89.7566   11.2351 C.ar    1  UNL1        0.1386
      2 C          62.3388   88.6847   10.3828 C.ar    1  UNL1        0.0369
      3 C          62.3444   87.2597   10.8509 C.ar    1  UNL1        0.0043
      4 C          62.9623   86.9064   12.1714 C.ar    1  UNL1        0.0153
      5 C          63.5745   87.9782   13.0237 C.ar    1  UNL1        0.0043
      6 C          63.5688   89.4033   12.5555 C.ar    1  UNL1        0.0369
      7 C          62.9679   85.4813   12.6395 C.2     1  UNL1        0.0766
      8 N          62.6825   85.1630   14.0772 N.2     1  UNL1       -0.1801
      9 N          62.6881   83.7380   14.5453 N.am    1  UNL1       -0.1793
     10 C          62.4026   83.4197   15.9832 C.3     1  UNL1        0.1428
     11 C          62.9792   82.6312   13.5757 C.2     1  UNL1        0.2442
     12 O          62.9848   81.2061   14.0438 O.2     1  UNL1       -0.2731
     13 C          63.2646   82.9495   12.1379 C.3     1  UNL1        0.0840
     14 C          63.5829   82.0761   10.9607 C.3     1  UNL1        0.0095
     15 C          63.7740   82.9614    9.7650 C.3     1  UNL1        0.0009
     16 C          63.5738   84.3819   10.2032 C.3     1  UNL1        0.0065
     17 C          63.2590   84.3746   11.6698 C.3     1  UNL1        0.0505
     18 O          62.9453   91.1816   10.7670 O.3     1  UNL1       -0.4754
     19 C          64.2328   91.9460   10.6750 C.3     1  UNL1        0.2068
     20 C          65.0366   92.2131   11.9128 C.3     1  UNL1        0.0646
     21 C          66.4616   92.6674   11.7983 C.3     1  UNL1        0.0759
     22 C          68.3553   92.2952    9.1668 C.3     1  UNL1        0.0173
     23 C          67.7003   93.5703    9.6084 C.3     1  UNL1        0.0576
     24 C          67.8007   94.8982    8.9181 C.3     1  UNL1        0.0174
     25 C          66.9924   95.8900    9.7009 C.3     1  UNL1        0.0187
     26 C          66.3924   95.1750   10.8752 C.3     1  UNL1        0.0721
     27 N          66.8298   93.7414   10.8181 N.3     1  UNL1       -0.2738
@<TRIPOS>BOND
     1    23    22    1
     2    23    24    1
     3    24    25    1
     4    25    26    1
     5    26    27    1
     6    27    21    1
     7    21    20    1
     8    20    19    1
     9    19    18    1
    10    18     1    1
    11     1     2   ar
    12     2     3   ar
    13     3     4   ar
    14     4     7    1
    15     7     8    2
    16     8     9    1
    17     9    10    1
    18     9    11   am
    19    11    12    2
    20    11    13    1
    21    13    14    1
    22    14    15    1
    23    15    16    1
    24    16    17    1
    25     4     5   ar
    26     5     6   ar
    27    27    23    1
    28     6     1   ar
    29    17     7    1
    30    17    13    1
@<TRIPOS>MOLECULE
*****
 27 30 0 0 0
SMALL
GASTEIGER

@<TRIPOS>ATOM
      1 C          61.7887   88.6267   10.6958 C.ar    1  UNL1        0.1386
      2 C          62.5580   88.2115   11.9148 C.ar    1  UNL1        0.0369
      3 C          63.4857   89.1824   12.5829 C.ar    1  UNL1        0.0043
      4 C          63.6443   90.5687   12.0321 C.ar    1  UNL1        0.0153
      5 C          62.8750   90.9839   10.8132 C.ar    1  UNL1        0.0043
      6 C          61.9472   90.0129   10.1451 C.ar    1  UNL1        0.0369
      7 C          64.5720   91.5396   12.7003 C.2     1  UNL1        0.0766
      8 N          64.7864   91.4729   14.1834 N.2     1  UNL1       -0.1801
      9 N          65.7141   92.4437   14.8516 N.am    1  UNL1       -0.1793
     10 C          65.9284   92.3770   16.3348 C.3     1  UNL1        0.1428
     11 C          66.4276   93.4815   14.0367 C.2     1  UNL1        0.2442
     12 O          67.3554   94.4525   14.7050 O.2     1  UNL1       -0.2731
     13 C          66.2133   93.5483   12.5536 C.3     1  UNL1        0.0840
     14 C          66.7741   94.4549   11.4983 C.3     1  UNL1        0.0095
     15 C          66.1929   94.0442   10.1779 C.3     1  UNL1        0.0009
     16 C          65.2729   92.8838   10.4171 C.3     1  UNL1        0.0065
     17 C          65.2855   92.5774   11.8854 C.3     1  UNL1        0.0505
     18 O          60.8610   87.6558   10.0277 O.3     1  UNL1       -0.4754
     19 C          61.3732   86.3220    9.5707 C.3     1  UNL1        0.2068
     20 C          61.5933   85.2219   10.5662 C.3     1  UNL1        0.0646
     21 C          62.9603   84.6291   10.7390 C.3     1  UNL1        0.0759
     22 C          63.8378   85.1763   13.8342 C.3     1  UNL1        0.0173
     23 C          63.6000   83.8335   13.2094 C.3     1  UNL1        0.0576
     24 C          63.7238   82.5065   13.8977 C.3     1  UNL1        0.0174
     25 C          63.3971   81.4349   12.9004 C.3     1  UNL1        0.0187
     26 C          63.0713   82.0995   11.5957 C.3     1  UNL1        0.0721
     27 N          63.1967   83.5820   11.7867 N.3     1  UNL1       -0.2738
@<TRIPOS>BOND
     1    23    22    1
     2    23    24    1
     3    24    25    1
     4    25    26    1
     5    26    27    1
     6    27    21    1
     7    21    20    1
     8    20    19    1
     9    19    18    1
    10    18     1    1
    11     1     2   ar
    12     2     3   ar
    13     3     4   ar
    14     4     7    1
    15     7     8    2
    16     8     9    1
    17     9    10    1
    18     9    11   am
    19    11    12    2
    20    11    13    1
    21    13    14    1
    22    14    15    1
    23    15    16    1
    24    16    17    1
    25     4     5   ar
    26     5     6   ar
    27    27    23    1
    28     6     1   ar
    29    17     7    1
    30    17    13    1
@<TRIPOS>MOLECULE
*****
 27 30 0 0 0
SMALL
GASTEIGER

@<TRIPOS>ATOM
      1 C          62.0254   88.1497   11.2735 C.ar    1  UNL1        0.1386
      2 C          62.9103   88.3178   12.4731 C.ar    1  UNL1        0.0369
      3 C          63.7479   89.5533   12.6199 C.ar    1  UNL1        0.0043
      4 C          63.7009   90.6208   11.5671 C.ar    1  UNL1        0.0153
      5 C          62.8162   90.4528   10.3676 C.ar    1  UNL1        0.0043
      6 C          61.9784   89.2172   10.2208 C.ar    1  UNL1        0.0369
      7 C          64.5387   91.8564   11.7139 C.2     1  UNL1        0.0766
      8 N          64.6756   92.8106   10.5647 N.2     1  UNL1       -0.1801
      9 N          65.5133   94.0461   10.7115 N.am    1  UNL1       -0.1793
     10 C          65.6503   95.0004    9.5623 C.3     1  UNL1        0.1428
     11 C          66.2142   94.3275   12.0076 C.2     1  UNL1        0.2442
     12 O          67.0519   95.5632   12.1544 O.2     1  UNL1       -0.2731
     13 C          66.0772   93.3733   13.1568 C.3     1  UNL1        0.0840
     14 C          66.6457   93.3857   14.5448 C.3     1  UNL1        0.0095
     15 C          66.1593   92.1577   15.2559 C.3     1  UNL1        0.0009
     16 C          65.2902   91.3865   14.3073 C.3     1  UNL1        0.0065
     17 C          65.2395   92.1377   13.0100 C.3     1  UNL1        0.0505
     18 O          61.1877   86.9142   11.1267 O.3     1  UNL1       -0.4754
     19 C          61.6476   85.7975   10.2369 C.3     1  UNL1        0.2068
     20 C          62.7060   84.8470   10.7123 C.3     1  UNL1        0.0646
     21 C          62.8592   84.5672   12.1780 C.3     1  UNL1        0.0759
     22 C          62.3990   83.7165   15.2947 C.3     1  UNL1        0.0173
     23 C          62.4858   82.7776   14.1281 C.3     1  UNL1        0.0576
     24 C          62.3762   81.2828   14.1893 C.3     1  UNL1        0.0174
     25 C          62.5201   80.7501   12.7946 C.3     1  UNL1        0.0187
     26 C          62.7185   81.9155   11.8714 C.3     1  UNL1        0.0721
     27 N          62.6973   83.1686   12.6955 N.3     1  UNL1       -0.2738
@<TRIPOS>BOND
     1    23    22    1
     2    23    24    1
     3    24    25    1
     4    25    26    1
     5    26    27    1
     6    27    21    1
     7    21    20    1
     8    20    19    1
     9    19    18    1
    10    18     1    1
    11     1     2   ar
    12     2     3   ar
    13     3     4   ar
    14     4     7    1
    15     7     8    2
    16     8     9    1
    17     9    10    1
    18     9    11   am
    19    11    12    2
    20    11    13    1
    21    13    14    1
    22    14    15    1
    23    15    16    1
    24    16    17    1
    25     4     5   ar
    26     5     6   ar
    27    27    23    1
    28     6     1   ar
    29    17     7    1
    30    17    13    1
@<TRIPOS>MOLECULE
*****
 27 30 0 0 0
SMALL
GASTEIGER

@<TRIPOS>ATOM
      1 C          62.3255   89.1286   10.3869 C.ar    1  UNL1        0.1386
      2 C          61.9109   87.8880    9.6526 C.ar    1  UNL1        0.0369
      3 C          62.0670   86.5448   10.3017 C.ar    1  UNL1        0.0043
      4 C          62.6377   86.4421   11.6851 C.ar    1  UNL1        0.0153
      5 C          63.0523   87.6826   12.4194 C.ar    1  UNL1        0.0043
      6 C          62.8962   89.0258   11.7703 C.ar    1  UNL1        0.0369
      7 C          62.7938   85.0988   12.3342 C.2     1  UNL1        0.0766
      8 N          62.4751   84.9277   13.7899 N.2     1  UNL1       -0.1801
      9 N          62.6311   83.5845   14.4390 N.am    1  UNL1       -0.1793
     10 C          62.3124   83.4134   15.8948 C.3     1  UNL1        0.1428
     11 C          63.1059   82.4123   13.6323 C.2     1  UNL1        0.2442
     12 O          63.2619   81.0690   14.2815 O.2     1  UNL1       -0.2731
     13 C          63.4246   82.5834   12.1766 C.3     1  UNL1        0.0840
     14 C          63.9085   81.6186   11.1350 C.3     1  UNL1        0.0095
     15 C          64.0515   82.3657    9.8421 C.3     1  UNL1        0.0009
     16 C          63.6560   83.7921   10.0847 C.3     1  UNL1        0.0065
     17 C          63.2685   83.9267   11.5275 C.3     1  UNL1        0.0505
     18 O          62.1695   90.4718    9.7378 O.3     1  UNL1       -0.4754
     19 C          63.2121   91.5303    9.9443 C.3     1  UNL1        0.2068
     20 C          64.0455   91.5290   11.1914 C.3     1  UNL1        0.0646
     21 C          65.1651   92.5152   11.3464 C.3     1  UNL1        0.0759
     22 C          64.9920   90.5436   13.9410 C.3     1  UNL1        0.0173
     23 C          65.6568   91.8876   13.8977 C.3     1  UNL1        0.0576
     24 C          66.3587   92.5613   15.0394 C.3     1  UNL1        0.0174
     25 C          66.8720   93.8838   14.5524 C.3     1  UNL1        0.0187
     26 C          66.4874   94.0276   13.1097 C.3     1  UNL1        0.0721
     27 N          65.7363   92.7939   12.7050 N.3     1  UNL1       -0.2738
@<TRIPOS>BOND
     1    23    22    1
     2    23    24    1
     3    24    25    1
     4    25    26    1
     5    26    27    1
     6    27    21    1
     7    21    20    1
     8    20    19    1
     9    19    18    1
    10    18     1    1
    11     1     2   ar
    12     2     3   ar
    13     3     4   ar
    14     4     7    1
    15     7     8    2
    16     8     9    1
    17     9    10    1
    18     9    11   am
    19    11    12    2
    20    11    13    1
    21    13    14    1
    22    14    15    1
    23    15    16    1
    24    16    17    1
    25     4     5   ar
    26     5     6   ar
    27    27    23    1
    28     6     1   ar
    29    17     7    1
    30    17    13    1
@<TRIPOS>MOLECULE
*****
 27 30 0 0 0
SMALL
GASTEIGER

@<TRIPOS>ATOM
      1 C          62.4465   89.2959   10.8669 C.ar    1  UNL1        0.1386
      2 C          61.9086   88.2290    9.9600 C.ar    1  UNL1        0.0369
      3 C          62.0392   86.7843   10.3416 C.ar    1  UNL1        0.0043
      4 C          62.7077   86.4064   11.6302 C.ar    1  UNL1        0.0153
      5 C          63.2456   87.4732   12.5371 C.ar    1  UNL1        0.0043
      6 C          63.1149   88.9180   12.1554 C.ar    1  UNL1        0.0369
      7 C          62.8382   84.9616   12.0118 C.2     1  UNL1        0.0766
      8 N          63.0513   83.9222   10.9515 N.2     1  UNL1       -0.1801
      9 N          63.1818   82.4775   11.3331 N.am    1  UNL1       -0.1793
     10 C          63.3949   81.4380   10.2728 C.3     1  UNL1        0.1428
     11 C          63.0994   82.0721   12.7750 C.2     1  UNL1        0.2442
     12 O          63.2300   80.6273   13.1565 O.2     1  UNL1       -0.2731
     13 C          62.8864   83.1115   13.8352 C.3     1  UNL1        0.0840
     14 C          62.7645   83.0132   15.3270 C.3     1  UNL1        0.0095
     15 C          62.5586   84.3973   15.8674 C.3     1  UNL1        0.0009
     16 C          62.5532   85.3510   14.7096 C.3     1  UNL1        0.0065
     17 C          62.7558   84.5563   13.4536 C.3     1  UNL1        0.0505
     18 O          62.3159   90.7406   10.4853 O.3     1  UNL1       -0.4754
     19 C          63.5444   91.5794   10.2922 C.3     1  UNL1        0.2068
     20 C          64.5418   91.7158   11.4042 C.3     1  UNL1        0.0646
     21 C          65.3428   92.9765   11.5429 C.3     1  UNL1        0.0759
     22 C          65.9380   95.8088   10.0352 C.3     1  UNL1        0.0173
     23 C          66.7501   94.5542    9.9072 C.3     1  UNL1        0.0576
     24 C          67.9783   94.3812    9.0638 C.3     1  UNL1        0.0174
     25 C          68.4639   92.9724    9.2355 C.3     1  UNL1        0.0187
     26 C          67.5357   92.2747   10.1850 C.3     1  UNL1        0.0721
     27 N          66.4765   93.2523   10.6003 N.3     1  UNL1       -0.2738
@<TRIPOS>BOND
     1    23    22    1
     2    23    24    1
     3    24    25    1
     4    25    26    1
     5    26    27    1
     6    27    21    1
     7    21    20    1
     8    20    19    1
     9    19    18    1
    10    18     1    1
    11     1     2   ar
    12     2     3   ar
    13     3     4   ar
    14     4     7    1
    15     7     8    2
    16     8     9    1
    17     9    10    1
    18     9    11   am
    19    11    12    2
    20    11    13    1
    21    13    14    1
    22    14    15    1
    23    15    16    1
    24    16    17    1
    25     4     5   ar
    26     5     6   ar
    27    27    23    1
    28     6     1   ar
    29    17     7    1
    30    17    13    1
@<TRIPOS>MOLECULE
*****
 27 30 0 0 0
SMALL
GASTEIGER

@<TRIPOS>ATOM
      1 C          61.4742   88.4181   10.2455 C.ar    1  UNL1        0.1386
      2 C          61.6296   89.7837    9.6445 C.ar    1  UNL1        0.0369
      3 C          62.5704   90.7735   10.2648 C.ar    1  UNL1        0.0043
      4 C          63.3559   90.3980   11.4863 C.ar    1  UNL1        0.0153
      5 C          63.2006   89.0325   12.0874 C.ar    1  UNL1        0.0043
      6 C          62.2598   88.0426   11.4670 C.ar    1  UNL1        0.0369
      7 C          64.2968   91.3880   12.1066 C.2     1  UNL1        0.0766
      8 N          65.0790   92.3264   11.2363 N.2     1  UNL1       -0.1801
      9 N          66.0198   93.3163   11.8566 N.am    1  UNL1       -0.1793
     10 C          66.8020   94.2547   10.9861 C.3     1  UNL1        0.1428
     11 C          66.1784   93.3679   13.3473 C.2     1  UNL1        0.2442
     12 O          67.1193   94.3579   13.9676 O.2     1  UNL1       -0.2731
     13 C          65.3962   92.4295   14.2177 C.3     1  UNL1        0.0840
     14 C          65.3445   92.2486   15.7058 C.3     1  UNL1        0.0095
     15 C          64.3718   91.1467   16.0052 C.3     1  UNL1        0.0009
     16 C          63.8222   90.6467   14.7021 C.3     1  UNL1        0.0065
     17 C          64.4554   91.4396   13.5973 C.3     1  UNL1        0.0505
     18 O          60.5335   87.4282    9.6252 O.3     1  UNL1       -0.4754
     19 C          61.0369   86.0816    9.1969 C.3     1  UNL1        0.2068
     20 C          62.5017   85.7688    9.2754 C.3     1  UNL1        0.0646
     21 C          62.9552   84.3679    9.5618 C.3     1  UNL1        0.0759
     22 C          63.3805   81.2856   10.5455 C.3     1  UNL1        0.0173
     23 C          63.3250   82.4943   11.4320 C.3     1  UNL1        0.0576
     24 C          63.4552   82.4984   12.9263 C.3     1  UNL1        0.0174
     25 C          63.3402   83.9177   13.3977 C.3     1  UNL1        0.0187
     26 C          63.1389   84.7908   12.1947 C.3     1  UNL1        0.0721
     27 N          63.1295   83.9111   10.9798 N.3     1  UNL1       -0.2738
@<TRIPOS>BOND
     1    23    22    1
     2    23    24    1
     3    24    25    1
     4    25    26    1
     5    26    27    1
     6    27    21    1
     7    21    20    1
     8    20    19    1
     9    19    18    1
    10    18     1    1
    11     1     2   ar
    12     2     3   ar
    13     3     4   ar
    14     4     7    1
    15     7     8    2
    16     8     9    1
    17     9    10    1
    18     9    11   am
    19    11    12    2
    20    11    13    1
    21    13    14    1
    22    14    15    1
    23    15    16    1
    24    16    17    1
    25     4     5   ar
    26     5     6   ar
    27    27    23    1
    28     6     1   ar
    29    17     7    1
    30    17    13    1
