@<TRIPOS>MOLECULE
*****
 35 39 0 0 0
SMALL
GASTEIGER

@<TRIPOS>ATOM
      1 N          73.0733   80.2202   12.1203 N.ar    1  UNL1       -0.2937
      2 C          73.5254   81.3704   12.9704 C.ar    1  UNL1        0.1798
      3 N          73.5943   80.8969   14.3921 N.ar    1  UNL1       -0.2195
      4 C          73.1848   79.4542   14.4206 C.ar    1  UNL1        0.1483
      5 C          73.0635   78.4673   15.5437 C.ar    1  UNL1        0.1516
      6 N          72.6202   77.0620   15.2627 N.ar    1  UNL1       -0.2031
      7 C          72.2983   76.6438   13.8586 C.ar    1  UNL1        0.2093
      8 N          72.4196   77.6308   12.7355 N.ar    1  UNL1       -0.2003
      9 C          72.8628   79.0359   13.0165 C.ar    1  UNL1        0.1678
     10 C          72.3181   81.0050    8.3949 C.3     1  UNL1        0.0977
     11 C          71.9040   82.3903    8.7941 C.3     1  UNL1        0.0136
     12 C          72.3692   81.4170    9.8363 C.3     1  UNL1        0.0344
     13 C          72.8678   80.2491   10.6347 C.3     1  UNL1        0.1180
     14 C          73.1248   79.1154    9.6869 C.3     1  UNL1        0.1582
     15 O          73.6324   77.7536   10.0581 O.3     1  UNL1       -0.3800
     16 C          72.7851   79.5825    8.3025 C.3     1  UNL1        0.1471
     17 O          72.8933   78.7699    7.0464 O.3     1  UNL1       -0.3814
     18 H          73.7107   77.2088    9.2593 H       1  UNL1        0.2105
     19 H          73.2206   77.8827    7.2624 H       1  UNL1        0.2105
     20 C          72.8544   81.9983    4.5901 C.3     1  UNL1        0.1107
     21 N          73.1076   81.8208    6.0580 N.am    1  UNL1       -0.3026
     22 C          72.0649   81.1825    6.9270 C.2     1  UNL1        0.2240
     23 O          70.7691   80.7216    6.3283 O.2     1  UNL1       -0.2750
     24 H          73.9581   82.1233    6.4509 H       1  UNL1        0.1495
     25 N          73.3855   78.8856   16.9477 N.pl3   1  UNL1       -0.3153
     26 C          72.7152   80.0875   17.5446 C.3     1  UNL1        0.1097
     27 H          74.0367   78.3712   17.4775 H       1  UNL1        0.1483
     28 C          71.8550   75.2386   13.5776 C.1     1  UNL1       -0.0205
     29 C          71.4118   73.8335   13.2966 C.1     1  UNL1       -0.0502
     30 C          70.9685   72.4282   13.0155 C.ar    1  UNL1        0.0721
     31 C          70.3939   71.9266   11.7239 C.ar    1  UNL1        0.0162
     32 C          70.0923   70.4664   11.8869 C.ar    1  UNL1        0.0191
     33 C          70.4804   70.0654   13.2793 C.ar    1  UNL1        0.0875
     34 CL         70.3499   68.6930   13.8704 Cl      1  UNL1       -0.0751
     35 S          71.0219   71.2780   13.9768 S.2     1  UNL1       -0.0671
@<TRIPOS>BOND
     1    20    21    1
     2    21    22   am
     3    22    23    2
     4    10    22    1
     5    10    11    1
     6    12    11    1
     7    12    13    1
     8    13     1    1
     9     1     2   ar
    10     2     3   ar
    11     3     4   ar
    12     4     5   ar
    13     5    25    1
    14    25    26    1
    15     5     6   ar
    16     6     7   ar
    17     7    28    1
    18    28    29    3
    19    29    30    1
    20    30    31   ar
    21    31    32   ar
    22    32    33   ar
    23    33    34    1
    24    33    35   ar
    25     7     8   ar
    26     8     9   ar
    27    13    14    1
    28    14    15    1
    29    14    16    1
    30    16    17    1
    31    12    10    1
    32     9     1   ar
    33    16    10    1
    34     9     4   ar
    35    35    30   ar
    36    21    24    1
    37    25    27    1
    38    15    18    1
    39    17    19    1
@<TRIPOS>MOLECULE
*****
 35 39 0 0 0
SMALL
GASTEIGER

@<TRIPOS>ATOM
      1 N          61.5119   86.0509    9.9820 N.ar    1  UNL1       -0.2937
      2 C          60.4121   85.7568    9.0053 C.ar    1  UNL1        0.1798
      3 N          59.9196   87.0624    8.4550 N.ar    1  UNL1       -0.2195
      4 C          60.7149   88.1634    9.0917 C.ar    1  UNL1        0.1483
      5 C          60.6702   89.6544    8.9339 C.ar    1  UNL1        0.1516
      6 N          61.6096   90.5203    9.7200 N.ar    1  UNL1       -0.2031
      7 C          62.5937   89.8951   10.6638 C.ar    1  UNL1        0.2093
      8 N          62.6384   88.4040   10.8215 N.ar    1  UNL1       -0.2003
      9 C          61.6990   87.5382   10.0354 C.ar    1  UNL1        0.1678
     10 C          63.1190   83.6779   12.5995 C.3     1  UNL1        0.0977
     11 C          62.2457   84.2881   13.6555 C.3     1  UNL1        0.0136
     12 C          62.1558   84.7694   12.2377 C.3     1  UNL1        0.0344
     13 C          62.2882   85.0359   10.7675 C.3     1  UNL1        0.1180
     14 C          63.3333   84.1091   10.2207 C.3     1  UNL1        0.1582
     15 O          63.7856   84.0348    8.7924 O.3     1  UNL1       -0.3800
     16 C          63.8468   83.2698   11.3530 C.3     1  UNL1        0.1471
     17 O          64.9026   82.2089   11.2558 O.3     1  UNL1       -0.3814
     18 H          64.4703   83.3533    8.7052 H       1  UNL1        0.2105
     19 H          65.2109   82.1427   10.3385 H       1  UNL1        0.2105
     20 C          64.1513   80.2884   14.3871 C.3     1  UNL1        0.1107
     21 N          63.4553   81.2552   13.4756 N.am    1  UNL1       -0.3026
     22 C          63.8151   82.7110   13.5110 C.2     1  UNL1        0.2240
     23 O          64.8708   83.2000   14.4578 O.2     1  UNL1       -0.2750
     24 H          62.7624   80.9343   12.8542 H       1  UNL1        0.1495
     25 N          59.6861   90.2796    7.9902 N.pl3   1  UNL1       -0.3153
     26 C          59.3955   89.6289    6.6702 C.3     1  UNL1        0.1097
     27 H          59.2309   91.1169    8.2371 H       1  UNL1        0.1483
     28 C          63.5331   90.7609   11.4498 C.1     1  UNL1       -0.0205
     29 C          64.4724   91.6267   12.2359 C.1     1  UNL1       -0.0502
     30 C          65.4119   92.4925   13.0220 C.ar    1  UNL1        0.0721
     31 C          65.9476   93.8268   12.5946 C.ar    1  UNL1        0.0162
     32 C          66.8473   94.3349   13.6820 C.ar    1  UNL1        0.0191
     33 C          66.8676   93.3147   14.7814 C.ar    1  UNL1        0.0875
     34 CL         67.6395   93.4154   16.0636 Cl      1  UNL1       -0.0751
     35 S          65.9804   92.1761   14.3735 S.2     1  UNL1       -0.0671
@<TRIPOS>BOND
     1    20    21    1
     2    21    22   am
     3    22    23    2
     4    10    22    1
     5    10    11    1
     6    12    11    1
     7    12    13    1
     8    13     1    1
     9     1     2   ar
    10     2     3   ar
    11     3     4   ar
    12     4     5   ar
    13     5    25    1
    14    25    26    1
    15     5     6   ar
    16     6     7   ar
    17     7    28    1
    18    28    29    3
    19    29    30    1
    20    30    31   ar
    21    31    32   ar
    22    32    33   ar
    23    33    34    1
    24    33    35   ar
    25     7     8   ar
    26     8     9   ar
    27    13    14    1
    28    14    15    1
    29    14    16    1
    30    16    17    1
    31    12    10    1
    32     9     1   ar
    33    16    10    1
    34     9     4   ar
    35    35    30   ar
    36    21    24    1
    37    25    27    1
    38    15    18    1
    39    17    19    1
@<TRIPOS>MOLECULE
*****
 35 39 0 0 0
SMALL
GASTEIGER

@<TRIPOS>ATOM
      1 N          61.5736   86.0038   10.2457 N.ar    1  UNL1       -0.2937
      2 C          60.4885   85.6716    9.2649 C.ar    1  UNL1        0.1798
      3 N          60.0225   86.9522    8.6380 N.ar    1  UNL1       -0.2195
      4 C          60.8196   88.0758    9.2315 C.ar    1  UNL1        0.1483
      5 C          60.7963   89.5569    8.9955 C.ar    1  UNL1        0.1516
      6 N          61.7317   90.4519    9.7531 N.ar    1  UNL1       -0.2031
      7 C          62.6904   89.8658   10.7468 C.ar    1  UNL1        0.2093
      8 N          62.7137   88.3846   10.9828 N.ar    1  UNL1       -0.2003
      9 C          61.7783   87.4896   10.2251 C.ar    1  UNL1        0.1678
     10 C          63.2903   82.9604   11.9356 C.3     1  UNL1        0.0977
     11 C          62.7726   82.0849   10.8332 C.3     1  UNL1        0.0136
     12 C          62.4636   83.5527   10.8331 C.3     1  UNL1        0.0344
     13 C          62.3227   85.0224   11.0977 C.3     1  UNL1        0.1180
     14 C          63.0624   85.3385   12.3638 C.3     1  UNL1        0.1582
     15 O          63.1829   86.6914   13.0002 O.3     1  UNL1       -0.3800
     16 C          63.6604   84.0640   12.8817 C.3     1  UNL1        0.1471
     17 O          64.4839   83.9188   14.1269 O.3     1  UNL1       -0.3814
     18 H          63.7129   86.6219   13.8096 H       1  UNL1        0.2105
     19 H          64.5755   84.7836   14.5567 H       1  UNL1        0.2105
     20 C          63.9881   80.0286   14.5180 C.3     1  UNL1        0.1107
     21 N          63.2818   81.1201   13.7696 N.am    1  UNL1       -0.3026
     22 C          63.9966   81.8689   12.6841 C.2     1  UNL1        0.2240
     23 O          65.4176   81.5265   12.3470 O.2     1  UNL1       -0.2750
     24 H          62.3492   81.3448   13.9908 H       1  UNL1        0.1495
     25 N          59.8376   90.1431    8.0019 N.pl3   1  UNL1       -0.3153
     26 C          59.4479   89.3596    6.7835 C.3     1  UNL1        0.1097
     27 H          59.4641   91.0420    8.1493 H       1  UNL1        0.1483
     28 C          63.6258   90.7607   11.5044 C.1     1  UNL1       -0.0205
     29 C          64.5612   91.6556   12.2620 C.1     1  UNL1       -0.0502
     30 C          65.4967   92.5507   13.0197 C.ar    1  UNL1        0.0721
     31 C          65.9682   93.9058   12.5823 C.ar    1  UNL1        0.0162
     32 C          66.8878   94.4403   13.6400 C.ar    1  UNL1        0.0191
     33 C          66.9846   93.4154   14.7311 C.ar    1  UNL1        0.0875
     34 CL         67.7983   93.5371   15.9853 Cl      1  UNL1       -0.0751
     35 S          66.1249   92.2476   14.3477 S.2     1  UNL1       -0.0671
@<TRIPOS>BOND
     1    20    21    1
     2    21    22   am
     3    22    23    2
     4    10    22    1
     5    10    11    1
     6    12    11    1
     7    12    13    1
     8    13     1    1
     9     1     2   ar
    10     2     3   ar
    11     3     4   ar
    12     4     5   ar
    13     5    25    1
    14    25    26    1
    15     5     6   ar
    16     6     7   ar
    17     7    28    1
    18    28    29    3
    19    29    30    1
    20    30    31   ar
    21    31    32   ar
    22    32    33   ar
    23    33    34    1
    24    33    35   ar
    25     7     8   ar
    26     8     9   ar
    27    13    14    1
    28    14    15    1
    29    14    16    1
    30    16    17    1
    31    12    10    1
    32     9     1   ar
    33    16    10    1
    34     9     4   ar
    35    35    30   ar
    36    21    24    1
    37    25    27    1
    38    15    18    1
    39    17    19    1
@<TRIPOS>MOLECULE
*****
 35 39 0 0 0
SMALL
GASTEIGER

@<TRIPOS>ATOM
      1 N          61.4852   86.5858   10.9021 N.ar    1  UNL1       -0.2937
      2 C          60.1859   86.6203   10.1534 C.ar    1  UNL1        0.1798
      3 N          59.7250   88.0463   10.0903 N.ar    1  UNL1       -0.2195
      4 C          60.7395   88.8932   10.8001 C.ar    1  UNL1        0.1483
      5 C          60.8132   90.3696   11.0543 C.ar    1  UNL1        0.1516
      6 N          61.9748   90.9435   11.8103 N.ar    1  UNL1       -0.2031
      7 C          63.0626   90.0408   12.3120 C.ar    1  UNL1        0.2093
      8 N          62.9889   88.5643   12.0578 N.ar    1  UNL1       -0.2003
      9 C          61.8273   87.9905   11.3018 C.ar    1  UNL1        0.1678
     10 C          63.3568   83.5228   12.3788 C.3     1  UNL1        0.0977
     11 C          62.8047   83.8657   13.7306 C.3     1  UNL1        0.0136
     12 C          62.4615   84.7150   12.5429 C.3     1  UNL1        0.0344
     13 C          62.2995   85.3616   11.1991 C.3     1  UNL1        0.1180
     14 C          63.0947   84.5689   10.2044 C.3     1  UNL1        0.1582
     15 O          63.2153   84.8614    8.7382 O.3     1  UNL1       -0.3800
     16 C          63.7482   83.4324   10.9335 C.3     1  UNL1        0.1471
     17 O          64.6370   82.3890   10.3243 O.3     1  UNL1       -0.3814
     18 H          63.7872   84.1975    8.3220 H       1  UNL1        0.2105
     19 H          64.7298   82.5582    9.3737 H       1  UNL1        0.2105
     20 C          64.2631   80.1194   14.2080 C.3     1  UNL1        0.1107
     21 N          63.4942   81.3276   13.7616 N.am    1  UNL1       -0.3026
     22 C          64.1257   82.3146   12.8252 C.2     1  UNL1        0.2240
     23 O          65.5261   82.0936   12.3352 O.2     1  UNL1       -0.2750
     24 H          62.5750   81.4727   14.0832 H       1  UNL1        0.1495
     25 N          59.7253   91.2723   10.5525 N.pl3   1  UNL1       -0.3153
     26 C          58.5788   91.6353   11.4492 C.3     1  UNL1        0.1097
     27 H          59.7637   91.6265    9.6348 H       1  UNL1        0.1483
     28 C          64.2242   90.6146   13.0680 C.1     1  UNL1       -0.0205
     29 C          65.3857   91.1884   13.8239 C.1     1  UNL1       -0.0502
     30 C          66.5474   91.7622   14.5799 C.ar    1  UNL1        0.0721
     31 C          67.5965   90.9788   15.3118 C.ar    1  UNL1        0.0162
     32 C          68.5613   91.9525   15.9209 C.ar    1  UNL1        0.0191
     33 C          68.1084   93.3377   15.5655 C.ar    1  UNL1        0.0875
     34 CL         68.7820   94.6161   15.9682 Cl      1  UNL1       -0.0751
     35 S          66.8638   93.2200   14.7367 S.2     1  UNL1       -0.0671
@<TRIPOS>BOND
     1    20    21    1
     2    21    22   am
     3    22    23    2
     4    10    22    1
     5    10    11    1
     6    12    11    1
     7    12    13    1
     8    13     1    1
     9     1     2   ar
    10     2     3   ar
    11     3     4   ar
    12     4     5   ar
    13     5    25    1
    14    25    26    1
    15     5     6   ar
    16     6     7   ar
    17     7    28    1
    18    28    29    3
    19    29    30    1
    20    30    31   ar
    21    31    32   ar
    22    32    33   ar
    23    33    34    1
    24    33    35   ar
    25     7     8   ar
    26     8     9   ar
    27    13    14    1
    28    14    15    1
    29    14    16    1
    30    16    17    1
    31    12    10    1
    32     9     1   ar
    33    16    10    1
    34     9     4   ar
    35    35    30   ar
    36    21    24    1
    37    25    27    1
    38    15    18    1
    39    17    19    1
@<TRIPOS>MOLECULE
*****
 35 39 0 0 0
SMALL
GASTEIGER

@<TRIPOS>ATOM
      1 N          64.0363   88.8423   13.1565 N.ar    1  UNL1       -0.2937
      2 C          64.3612   87.7003   14.0730 C.ar    1  UNL1        0.1798
      3 N          63.6197   86.4904   13.5869 N.ar    1  UNL1       -0.2195
      4 C          62.8365   86.8847   12.3699 C.ar    1  UNL1        0.1483
      5 C          61.9222   86.1079   11.4696 C.ar    1  UNL1        0.1516
      6 N          61.2652   86.7847   10.3032 N.ar    1  UNL1       -0.2031
      7 C          61.5227   88.2383   10.0371 C.ar    1  UNL1        0.2093
      8 N          62.4371   89.0151   10.9375 N.ar    1  UNL1       -0.2003
      9 C          63.0939   88.3383   12.1038 C.ar    1  UNL1        0.1678
     10 C          65.4587   92.4254   12.7059 C.3     1  UNL1        0.0977
     11 C          65.5240   92.1891   11.2261 C.3     1  UNL1        0.0136
     12 C          65.0144   91.1110   12.1360 C.3     1  UNL1        0.0344
     13 C          64.5614   90.2426   13.2721 C.3     1  UNL1        0.1180
     14 C          64.7258   91.0203   14.5442 C.3     1  UNL1        0.1582
     15 O          64.3939   90.5343   15.9239 O.3     1  UNL1       -0.3800
     16 C          65.2804   92.3695   14.1943 C.3     1  UNL1        0.1471
     17 O          65.6004   93.4693   15.1626 O.3     1  UNL1       -0.3814
     18 H          64.5933   91.2310   16.5688 H       1  UNL1        0.2105
     19 H          65.3932   93.1770   16.0640 H       1  UNL1        0.2105
     20 C          66.1313   96.1532   11.5221 C.3     1  UNL1        0.1107
     21 N          65.5903   94.7547   11.5626 N.am    1  UNL1       -0.3026
     22 C          65.9997   93.8240   12.6654 C.2     1  UNL1        0.2240
     23 O          66.9499   94.2916   13.7276 O.2     1  UNL1       -0.2750
     24 H          64.9667   94.4477   10.8654 H       1  UNL1        0.1495
     25 N          61.6647   84.6543   11.7356 N.pl3   1  UNL1       -0.3153
     26 C          62.7957   83.6703   11.6827 C.3     1  UNL1        0.1097
     27 H          60.7534   84.3460   11.9450 H       1  UNL1        0.1483
     28 C          60.8658   88.9151    8.8708 C.1     1  UNL1       -0.0205
     29 C          60.2089   89.5919    7.7045 C.1     1  UNL1       -0.0502
     30 C          59.5520   90.2688    6.5381 C.ar    1  UNL1        0.0721
     31 C          60.2566   90.9148    5.3822 C.ar    1  UNL1        0.0162
     32 C          59.2152   91.4638    4.4526 C.ar    1  UNL1        0.0191
     33 C          57.8669   91.1570    5.0340 C.ar    1  UNL1        0.0875
     34 CL         56.5429   91.5243    4.4322 Cl      1  UNL1       -0.0751
     35 S          58.0751   90.4185    6.3229 S.2     1  UNL1       -0.0671
@<TRIPOS>BOND
     1    20    21    1
     2    21    22   am
     3    22    23    2
     4    10    22    1
     5    10    11    1
     6    12    11    1
     7    12    13    1
     8    13     1    1
     9     1     2   ar
    10     2     3   ar
    11     3     4   ar
    12     4     5   ar
    13     5    25    1
    14    25    26    1
    15     5     6   ar
    16     6     7   ar
    17     7    28    1
    18    28    29    3
    19    29    30    1
    20    30    31   ar
    21    31    32   ar
    22    32    33   ar
    23    33    34    1
    24    33    35   ar
    25     7     8   ar
    26     8     9   ar
    27    13    14    1
    28    14    15    1
    29    14    16    1
    30    16    17    1
    31    12    10    1
    32     9     1   ar
    33    16    10    1
    34     9     4   ar
    35    35    30   ar
    36    21    24    1
    37    25    27    1
    38    15    18    1
    39    17    19    1
@<TRIPOS>MOLECULE
*****
 35 39 0 0 0
SMALL
GASTEIGER

@<TRIPOS>ATOM
      1 N          64.1587   87.2935   14.4489 N.ar    1  UNL1       -0.2937
      2 C          64.6329   86.1076   15.2355 C.ar    1  UNL1        0.1798
      3 N          64.1536   84.8682   14.5398 N.ar    1  UNL1       -0.2195
      4 C          63.3831   85.2881   13.3231 C.ar    1  UNL1        0.1483
      5 C          62.6791   84.4992   12.2592 C.ar    1  UNL1        0.1516
      6 N          61.9782   85.2093   11.1391 N.ar    1  UNL1       -0.2031
      7 C          61.9814   86.7082   11.0829 C.ar    1  UNL1        0.2093
      8 N          62.6855   87.4971   12.1469 N.ar    1  UNL1       -0.2003
      9 C          63.3863   86.7870   13.2670 C.ar    1  UNL1        0.1678
     10 C          65.4651   90.9136   14.9523 C.3     1  UNL1        0.0977
     11 C          66.7080   90.5460   14.1973 C.3     1  UNL1        0.0136
     12 C          65.6331   89.5228   14.4161 C.3     1  UNL1        0.0344
     13 C          64.4124   88.7331   14.7852 C.3     1  UNL1        0.1180
     14 C          63.4899   89.6358   15.5494 C.3     1  UNL1        0.1582
     15 O          62.1518   89.2573   16.1117 O.3     1  UNL1       -0.3800
     16 C          64.1405   90.9835   15.6528 C.3     1  UNL1        0.1471
     17 O          63.5672   92.1892   16.3365 O.3     1  UNL1       -0.3814
     18 H          61.7609   90.0237   16.5598 H       1  UNL1        0.2105
     19 H          62.6994   91.9676   16.7088 H       1  UNL1        0.2105
     20 C          66.6424   94.6529   14.3342 C.3     1  UNL1        0.1107
     21 N          66.2517   93.2284   14.0730 N.am    1  UNL1       -0.3026
     22 C          65.8558   92.3381   15.2135 C.2     1  UNL1        0.2240
     23 O          65.8507   92.8723   16.6152 O.2     1  UNL1       -0.2750
     24 H          66.2550   92.8777   13.1530 H       1  UNL1        0.1495
     25 N          62.6759   83.0003   12.3154 N.pl3   1  UNL1       -0.3153
     26 C          63.8477   82.2274   11.7863 C.3     1  UNL1        0.1097
     27 H          61.9048   82.5237   12.6995 H       1  UNL1        0.1483
     28 C          61.2806   87.4183    9.9629 C.1     1  UNL1       -0.0205
     29 C          60.5798   88.1283    8.8428 C.1     1  UNL1       -0.0502
     30 C          59.8789   88.8384    7.7227 C.ar    1  UNL1        0.0721
     31 C          58.5537   88.4595    7.1309 C.ar    1  UNL1        0.0162
     32 C          58.2360   89.4389    6.0402 C.ar    1  UNL1        0.0191
     33 C          59.3649   90.4233    5.9578 C.ar    1  UNL1        0.0875
     34 CL         59.4614   91.5763    5.0032 Cl      1  UNL1       -0.0751
     35 S          60.3802   90.0521    6.9976 S.2     1  UNL1       -0.0671
@<TRIPOS>BOND
     1    20    21    1
     2    21    22   am
     3    22    23    2
     4    10    22    1
     5    10    11    1
     6    12    11    1
     7    12    13    1
     8    13     1    1
     9     1     2   ar
    10     2     3   ar
    11     3     4   ar
    12     4     5   ar
    13     5    25    1
    14    25    26    1
    15     5     6   ar
    16     6     7   ar
    17     7    28    1
    18    28    29    3
    19    29    30    1
    20    30    31   ar
    21    31    32   ar
    22    32    33   ar
    23    33    34    1
    24    33    35   ar
    25     7     8   ar
    26     8     9   ar
    27    13    14    1
    28    14    15    1
    29    14    16    1
    30    16    17    1
    31    12    10    1
    32     9     1   ar
    33    16    10    1
    34     9     4   ar
    35    35    30   ar
    36    21    24    1
    37    25    27    1
    38    15    18    1
    39    17    19    1
@<TRIPOS>MOLECULE
*****
 35 39 0 0 0
SMALL
GASTEIGER

@<TRIPOS>ATOM
      1 N          63.9439   85.6131   13.9772 N.ar    1  UNL1       -0.2937
      2 C          64.6034   84.3414   14.4221 C.ar    1  UNL1        0.1798
      3 N          64.4260   83.3226   13.3356 N.ar    1  UNL1       -0.2195
      4 C          63.6569   83.9646   12.2192 C.ar    1  UNL1        0.1483
      5 C          63.1894   83.4430   10.8928 C.ar    1  UNL1        0.1516
      6 N          62.4239   84.3371    9.9629 N.ar    1  UNL1       -0.2031
      7 C          62.1260   85.7527   10.3594 C.ar    1  UNL1        0.2093
      8 N          62.5935   86.2742   11.6859 N.ar    1  UNL1       -0.2003
      9 C          63.3590   85.3802   12.6157 C.ar    1  UNL1        0.1678
     10 C          64.0217   89.2410   15.3546 C.3     1  UNL1        0.0977
     11 C          64.5019   89.7152   14.0151 C.3     1  UNL1        0.0136
     12 C          64.2296   88.2576   14.2412 C.3     1  UNL1        0.0344
     13 C          63.8805   86.8930   14.7569 C.3     1  UNL1        0.1180
     14 C          63.4570   87.0329   16.1890 C.3     1  UNL1        0.1582
     15 O          63.0225   85.9176   17.0930 O.3     1  UNL1       -0.3800
     16 C          63.5443   88.4842   16.5585 C.3     1  UNL1        0.1471
     17 O          63.2124   89.0747   17.8967 O.3     1  UNL1       -0.3814
     18 H          62.8022   86.2767   17.9667 H       1  UNL1        0.2105
     19 H          62.9280   88.3700   18.4996 H       1  UNL1        0.2105
     20 C          65.1851   92.8499   16.5263 C.3     1  UNL1        0.1107
     21 N          65.1982   91.4979   15.8767 N.am    1  UNL1       -0.3026
     22 C          64.0086   90.5931   16.0042 C.2     1  UNL1        0.2240
     23 O          62.8059   91.0402   16.7811 O.2     1  UNL1       -0.2750
     24 H          65.9875   91.2044   15.3668 H       1  UNL1        0.1495
     25 N          63.4873   82.0274   10.4963 N.pl3   1  UNL1       -0.3153
     26 C          62.9742   80.8910   11.3304 C.3     1  UNL1        0.1097
     27 H          64.0196   81.8440    9.6887 H       1  UNL1        0.1483
     28 C          61.3605   86.6467    9.4295 C.1     1  UNL1       -0.0205
     29 C          60.5951   87.5408    8.4997 C.1     1  UNL1       -0.0502
     30 C          59.8296   88.4349    7.5697 C.ar    1  UNL1        0.0721
     31 C          58.3802   88.2979    7.2088 C.ar    1  UNL1        0.0162
     32 C          58.0340   89.4013    6.2535 C.ar    1  UNL1        0.0191
     33 C          59.2696   90.2203    6.0239 C.ar    1  UNL1        0.0875
     34 CL         59.3767   91.4250    5.1367 Cl      1  UNL1       -0.0751
     35 S          60.3793   89.6230    6.8374 S.2     1  UNL1       -0.0671
@<TRIPOS>BOND
     1    20    21    1
     2    21    22   am
     3    22    23    2
     4    10    22    1
     5    10    11    1
     6    12    11    1
     7    12    13    1
     8    13     1    1
     9     1     2   ar
    10     2     3   ar
    11     3     4   ar
    12     4     5   ar
    13     5    25    1
    14    25    26    1
    15     5     6   ar
    16     6     7   ar
    17     7    28    1
    18    28    29    3
    19    29    30    1
    20    30    31   ar
    21    31    32   ar
    22    32    33   ar
    23    33    34    1
    24    33    35   ar
    25     7     8   ar
    26     8     9   ar
    27    13    14    1
    28    14    15    1
    29    14    16    1
    30    16    17    1
    31    12    10    1
    32     9     1   ar
    33    16    10    1
    34     9     4   ar
    35    35    30   ar
    36    21    24    1
    37    25    27    1
    38    15    18    1
    39    17    19    1
