@<TRIPOS>MOLECULE
*****
 57 63 0 0 0
SMALL
GASTEIGER

@<TRIPOS>ATOM
      1 C          60.7293   89.0871    9.4617 C.3     1  UNL1        0.1698
      2 C          60.0249   88.9387    8.1457 C.3     1  UNL1        0.0651
      3 C          60.4182   89.8010    6.9831 C.3     1  UNL1        0.0991
      4 N          61.5157   90.8118    7.1363 N.am    1  UNL1       -0.2570
      5 C          61.2546   91.1472    5.6979 C.2     1  UNL1        0.3075
      6 O          60.1424   90.2091    5.3329 O.2     1  UNL1       -0.2523
      7 N          61.4884   91.9002    4.4218 N.am    1  UNL1       -0.2623
      8 C          60.4803   91.2972    3.4890 C.3     1  UNL1        0.1164
      9 C          62.1708   92.9215    3.5609 C.3     1  UNL1        0.0950
     10 C          63.1667   94.0089    3.2855 C.3     1  UNL1        0.0219
     11 C          64.2788   94.9470    3.6504 C.3     1  UNL1        0.0064
     12 C          65.2869   95.5500    4.5832 C.3     1  UNL1        0.0258
     13 C          65.9913   95.6985    5.8992 C.2     1  UNL1       -0.0306
     14 C          66.2525   95.3630    7.3378 C.2     1  UNL1       -0.0289
     15 C          66.0187   94.6101    8.6139 C.3     1  UNL1        0.0487
     16 C          66.4380   94.4331   10.0431 C.3     1  UNL1        0.0337
     17 C          65.3363   93.5887    9.4748 C.3     1  UNL1        0.1311
     18 N          64.3404   92.5013    9.7501 N.am    1  UNL1       -0.2983
     19 C          63.2282   91.5632    9.3852 C.2     1  UNL1        0.2410
     20 O          62.9945   90.8103   10.6612 O.2     1  UNL1       -0.2733
     21 C          62.2201   90.9602    8.4523 C.3     1  UNL1        0.1566
     22 C          61.8270   90.0979    9.6150 C.3     1  UNL1        0.0728
     23 H          64.5118   92.2811   10.6943 H       1  UNL1        0.1498
     24 C          65.5159   93.1766   10.9059 C.2     1  UNL1        0.2567
     25 O          64.4049   92.4749   11.6294 O.2     1  UNL1       -0.2718
     26 N          66.8065   93.4661   11.6133 N.am    1  UNL1       -0.1876
     27 H          67.5357   93.9266   11.1384 H       1  UNL1        0.1762
     28 S          66.9862   93.0539   13.0444 S.O2    1  UNL1        0.0527
     29 O          67.8581   91.9145   12.6067 O.2     1  UNL1       -0.1545
     30 O          66.1142   94.1933   13.4820 O.2     1  UNL1       -0.1545
     31 C          67.1657   92.6418   14.4754 C.3     1  UNL1        0.1288
     32 C          66.9724   91.1599   14.3459 C.3     1  UNL1        0.0255
     33 C          67.4125   92.7442   15.9514 C.3     1  UNL1        0.0255
     34 C          67.4215   93.9805   15.1019 C.3     1  UNL1        0.0255
     35 O          60.3361   88.2247   10.6243 O.3     1  UNL1       -0.4789
     36 C          63.7100   89.4987   14.6545 C.ar    1  UNL1        0.1361
     37 C          62.6624   90.2581   13.8958 C.ar    1  UNL1        0.0368
     38 C          61.8869   89.5804   12.8053 C.ar    1  UNL1        0.0076
     39 C          62.1591   88.1431   12.4735 C.ar    1  UNL1        0.0515
     40 C          61.3836   87.4653   11.3829 C.ar    1  UNL1        0.1413
     41 C          61.6559   86.0280   11.0512 C.ar    1  UNL1        0.0581
     42 C          62.7035   85.2685   11.8098 C.ar    1  UNL1        0.1080
     43 N          63.4789   85.9464   12.9004 N.ar    1  UNL1       -0.2433
     44 C          63.2068   87.3836   13.2322 C.ar    1  UNL1        0.0832
     45 C          63.9822   88.0614   14.3227 C.ar    1  UNL1        0.0298
     46 C          65.0299   87.3019   15.0814 C.3     1  UNL1        0.0358
     47 C          62.9757   83.8312   11.4781 C.ar    1  UNL1        0.1284
     48 N          62.4593   82.6398   12.2290 N.ar    1  UNL1       -0.2328
     49 C          62.9767   81.4052   11.5521 C.ar    1  UNL1        0.1597
     50 C          63.8128   81.8336   10.3827 C.ar    1  UNL1        0.0600
     51 S          63.8122   83.3330   10.3370 S.2     1  UNL1       -0.0645
     52 C          62.7055   79.9908   11.9710 C.3     1  UNL1        0.4354
     53 F          62.4342   78.5762   12.3898 F       1  UNL1       -0.1644
     54 F          62.6967   79.5664   10.5323 F       1  UNL1       -0.1644
     55 F          62.7142   80.4151   13.4096 F       1  UNL1       -0.1644
     56 C          63.9190   91.3861   16.4278 C.3     1  UNL1        0.2525
     57 O          64.4855   90.1765   15.7451 O.3     1  UNL1       -0.4717
@<TRIPOS>BOND
     1    56    57    1
     2    57    36    1
     3    36    37   ar
     4    37    38   ar
     5    38    39   ar
     6    39    40   ar
     7    40    35    1
     8     1    35    1
     9     1     2    1
    10     2     3    1
    11     3     4    1
    12     4     5   am
    13     5     6    2
    14     5     7   am
    15     7     8    1
    16     7     9    1
    17     9    10    1
    18    10    11    1
    19    11    12    1
    20    12    13    1
    21    13    14    2
    22    14    15    1
    23    15    16    1
    24    16    17    1
    25    17    24    1
    26    24    25    2
    27    24    26   am
    28    26    28    1
    29    28    29    2
    30    28    30    2
    31    28    31    1
    32    31    32    1
    33    31    33    1
    34    33    34    1
    35    17    18    1
    36    18    19   am
    37    19    20    2
    38    19    21    1
    39    21    22    1
    40    40    41   ar
    41    41    42   ar
    42    42    47    1
    43    47    48   ar
    44    48    49   ar
    45    49    52    1
    46    52    53    1
    47    52    54    1
    48    52    55    1
    49    49    50   ar
    50    50    51   ar
    51    42    43   ar
    52    43    44   ar
    53    44    45   ar
    54    45    46    1
    55    45    36   ar
    56    44    39   ar
    57    22     1    1
    58    51    47   ar
    59    21     4    1
    60    17    15    1
    61    34    31    1
    62    26    27    1
    63    18    23    1
@<TRIPOS>MOLECULE
*****
 57 63 0 0 0
SMALL
GASTEIGER

@<TRIPOS>ATOM
      1 C          61.9730   89.0725   10.5503 C.3     1  UNL1        0.1698
      2 C          61.6164   88.7718    9.1247 C.3     1  UNL1        0.0651
      3 C          61.6218   87.3547    8.6331 C.3     1  UNL1        0.0991
      4 N          61.9837   86.2382    9.5671 N.am    1  UNL1       -0.2570
      5 C          61.7544   85.3327    8.3935 C.2     1  UNL1        0.3075
      6 O          61.3663   86.2889    7.3049 O.2     1  UNL1       -0.2523
      7 N          61.6979   84.0015    7.7043 N.am    1  UNL1       -0.2623
      8 C          61.2847   84.3654    6.3090 C.3     1  UNL1        0.1164
      9 C          61.8253   82.5085    7.6361 C.3     1  UNL1        0.0950
     10 C          62.1114   81.1492    8.2024 C.3     1  UNL1        0.0219
     11 C          62.4994   80.1931    9.2909 C.3     1  UNL1        0.0064
     12 C          62.9127   79.8292   10.6862 C.3     1  UNL1        0.0258
     13 C          63.2693   80.1299   12.1119 C.2     1  UNL1       -0.0306
     14 C          63.4985   81.0354   13.2856 C.2     1  UNL1       -0.0289
     15 C          63.5551   82.3665   13.9747 C.3     1  UNL1        0.0487
     16 C          63.8333   83.0850   15.2617 C.3     1  UNL1        0.0337
     17 C          63.4277   83.8596   14.0429 C.3     1  UNL1        0.1311
     18 N          63.1416   85.2188   13.4767 N.am    1  UNL1       -0.2983
     19 C          62.7535   86.1750   12.3880 C.2     1  UNL1        0.2410
     20 O          62.8101   87.5061   13.0772 O.2     1  UNL1       -0.2733
     21 C          62.3403   86.5389   10.9927 C.3     1  UNL1        0.1566
     22 C          62.3349   87.9559   11.4844 C.3     1  UNL1        0.0728
     23 H          63.2921   85.8132   14.2470 H       1  UNL1        0.1498
     24 C          63.6305   84.8514   15.1499 C.2     1  UNL1        0.2567
     25 O          65.0162   85.2934   15.5163 O.2     1  UNL1       -0.2718
     26 N          62.4474   85.4010   15.8903 N.am    1  UNL1       -0.1876
     27 H          61.5379   85.1109   15.6498 H       1  UNL1        0.1762
     28 S          62.6502   86.3928   16.9973 S.O2    1  UNL1        0.0527
     29 O          62.0333   85.4326   17.9706 O.2     1  UNL1       -0.1545
     30 O          63.2671   87.3531   16.0239 O.2     1  UNL1       -0.1545
     31 C          62.8530   87.3846   18.1041 C.3     1  UNL1        0.1288
     32 C          63.0672   88.6325   17.2997 C.3     1  UNL1        0.0255
     33 C          62.9815   87.9432   19.4903 C.3     1  UNL1        0.0255
     34 C          62.7093   86.4813   19.2929 C.3     1  UNL1        0.0255
     35 O          61.9677   90.4897   11.0419 O.3     1  UNL1       -0.4789
     36 C          64.1172   91.2021   15.9533 C.ar    1  UNL1        0.1361
     37 C          62.8486   90.5766   15.4539 C.ar    1  UNL1        0.0368
     38 C          62.5549   90.5476   13.9833 C.ar    1  UNL1        0.0076
     39 C          63.5299   91.1441   13.0119 C.ar    1  UNL1        0.0515
     40 C          63.2362   91.1151   11.5412 C.ar    1  UNL1        0.1413
     41 C          64.2113   91.7116   10.5699 C.ar    1  UNL1        0.0581
     42 C          65.4799   92.3371   11.0691 C.ar    1  UNL1        0.1080
     43 N          65.7735   92.3661   12.5398 N.ar    1  UNL1       -0.2433
     44 C          64.7986   91.7696   13.5112 C.ar    1  UNL1        0.0832
     45 C          65.0922   91.7986   14.9819 C.ar    1  UNL1        0.0298
     46 C          66.3609   92.4241   15.4812 C.3     1  UNL1        0.0358
     47 C          66.4550   92.9336   10.0978 C.ar    1  UNL1        0.1284
     48 N          66.3161   94.2600    9.4113 N.ar    1  UNL1       -0.2328
     49 C          67.5155   94.4545    8.5316 C.ar    1  UNL1        0.1597
     50 C          68.3956   93.2482    8.6745 C.ar    1  UNL1        0.0600
     51 S          67.7401   92.3083    9.6424 S.2     1  UNL1       -0.0645
     52 C          67.7869   95.6460    7.6619 C.3     1  UNL1        0.4354
     53 F          68.0584   96.8376    6.7923 F       1  UNL1       -0.1644
     54 F          68.0600   96.4745    8.8822 F       1  UNL1       -0.1644
     55 F          67.5139   94.8177    6.4417 F       1  UNL1       -0.1644
     56 C          64.7607   92.5270   18.0936 C.3     1  UNL1        0.2525
     57 O          64.4109   91.2311   17.4240 O.3     1  UNL1       -0.4717
@<TRIPOS>BOND
     1    56    57    1
     2    57    36    1
     3    36    37   ar
     4    37    38   ar
     5    38    39   ar
     6    39    40   ar
     7    40    35    1
     8     1    35    1
     9     1     2    1
    10     2     3    1
    11     3     4    1
    12     4     5   am
    13     5     6    2
    14     5     7   am
    15     7     8    1
    16     7     9    1
    17     9    10    1
    18    10    11    1
    19    11    12    1
    20    12    13    1
    21    13    14    2
    22    14    15    1
    23    15    16    1
    24    16    17    1
    25    17    24    1
    26    24    25    2
    27    24    26   am
    28    26    28    1
    29    28    29    2
    30    28    30    2
    31    28    31    1
    32    31    32    1
    33    31    33    1
    34    33    34    1
    35    17    18    1
    36    18    19   am
    37    19    20    2
    38    19    21    1
    39    21    22    1
    40    40    41   ar
    41    41    42   ar
    42    42    47    1
    43    47    48   ar
    44    48    49   ar
    45    49    52    1
    46    52    53    1
    47    52    54    1
    48    52    55    1
    49    49    50   ar
    50    50    51   ar
    51    42    43   ar
    52    43    44   ar
    53    44    45   ar
    54    45    46    1
    55    45    36   ar
    56    44    39   ar
    57    22     1    1
    58    51    47   ar
    59    21     4    1
    60    17    15    1
    61    34    31    1
    62    26    27    1
    63    18    23    1
