@<TRIPOS>MOLECULE
*****
 26 29 0 0 0
SMALL
GASTEIGER

@<TRIPOS>ATOM
      1 C          64.2235   89.8660   14.2263 C.3     1  UNL1        0.0472
      2 C          63.9335   88.4676   13.7679 C.2     1  UNL1        0.0324
      3 C          63.1762   88.2378   12.4937 C.2     1  UNL1        0.0905
      4 C          62.8861   86.8393   12.0352 C.3     1  UNL1        0.1747
      5 N          63.3535   85.6706   12.8510 N.ar    1  UNL1       -0.2903
      6 C          64.1109   85.9003   14.1252 C.ar    1  UNL1        0.2020
      7 N          64.4423   84.5616   14.7152 N.ar    1  UNL1       -0.2135
      8 C          63.8897   83.5045   13.8056 C.ar    1  UNL1        0.0999
      9 C          63.9124   82.0065   13.8776 C.ar    1  UNL1        0.0207
     10 C          63.2622   81.1938   12.7975 C.ar    1  UNL1        0.0016
     11 C          62.5893   81.8792   11.6453 C.ar    1  UNL1        0.0016
     12 C          62.5666   83.3772   11.5733 C.ar    1  UNL1        0.0188
     13 C          63.2168   84.1899   12.6535 C.ar    1  UNL1        0.0805
     14 N          64.4009   87.2988   14.5837 N.pl3   1  UNL1       -0.2873
     15 H          64.8980   87.4495   15.4200 H       1  UNL1        0.1547
     16 C          62.1287   86.6097   10.7610 C.ar    1  UNL1        0.1481
     17 C          62.7251   86.2389    9.4354 C.ar    1  UNL1        0.0385
     18 C          61.6069   86.1106    8.4439 C.ar    1  UNL1        0.0435
     19 C          60.3196   86.4020    9.1565 C.ar    1  UNL1        0.1792
     20 O          60.6421   86.7104   10.5886 O.2     1  UNL1       -0.4525
     21 C          62.7088   89.4067   11.6778 C.2     1  UNL1        0.3402
     22 O          63.4443   89.7910   10.4283 O.2     1  UNL1       -0.2451
     23 O          61.5059   90.1909   12.1115 O.3     1  UNL1       -0.4494
     24 C          60.1698   89.9226   11.4849 C.3     1  UNL1        0.1694
     25 C          59.9825   90.1100   10.0085 C.3     1  UNL1        0.0473
     26 C          59.0208   89.4668   12.3347 C.3     1  UNL1        0.0473
@<TRIPOS>BOND
     1     1     2    1
     2     2     3    2
     3     3    21    1
     4    21    22    2
     5    21    23    1
     6    23    24    1
     7    24    25    1
     8    24    26    1
     9     3     4    1
    10     4    16    1
    11    16    17   ar
    12    17    18   ar
    13    18    19   ar
    14    19    20   ar
    15     4     5    1
    16     5     6   ar
    17     6     7   ar
    18     7     8   ar
    19     8     9   ar
    20     9    10   ar
    21    10    11   ar
    22    11    12   ar
    23    12    13   ar
    24     6    14    1
    25    14     2    1
    26    20    16   ar
    27    13     5   ar
    28    13     8   ar
    29    14    15    1
@<TRIPOS>MOLECULE
*****
 26 29 0 0 0
SMALL
GASTEIGER

@<TRIPOS>ATOM
      1 C          62.0165   90.2159    9.3597 C.3     1  UNL1        0.0472
      2 C          62.8637   90.6061   10.5345 C.2     1  UNL1        0.0324
      3 C          62.7914   89.8152   11.8070 C.2     1  UNL1        0.0905
      4 C          63.6386   90.2053   12.9817 C.3     1  UNL1        0.1747
      5 N          64.5582   91.3863   12.8839 N.ar    1  UNL1       -0.2903
      6 C          64.6305   92.1772   11.6114 C.ar    1  UNL1        0.2020
      7 N          65.6230   93.2843   11.8096 N.ar    1  UNL1       -0.2135
      8 C          66.1641   93.1776   13.2046 C.ar    1  UNL1        0.0999
      9 C          67.1710   93.9971   13.9559 C.ar    1  UNL1        0.0207
     10 C          67.5198   93.6435   15.3713 C.ar    1  UNL1        0.0016
     11 C          66.8617   92.4705   16.0353 C.ar    1  UNL1        0.0016
     12 C          65.8548   91.6510   15.2839 C.ar    1  UNL1        0.0188
     13 C          65.5060   92.0046   13.8685 C.ar    1  UNL1        0.0805
     14 N          63.7833   91.7871   10.4367 N.pl3   1  UNL1       -0.2873
     15 H          63.8308   92.3061    9.6015 H       1  UNL1        0.1547
     16 C          63.5662   89.4144   14.2543 C.ar    1  UNL1        0.1481
     17 C          64.3086   88.1441   14.5462 C.ar    1  UNL1        0.0385
     18 C          63.9399   87.6996   15.9306 C.ar    1  UNL1        0.0435
     19 C          62.9698   88.6951   16.4942 C.ar    1  UNL1        0.1792
     20 O          62.7388   89.7549   15.4582 O.2     1  UNL1       -0.4525
     21 C          61.8717   88.6341   11.9048 C.2     1  UNL1        0.3402
     22 O          60.3912   88.8442   12.0220 O.2     1  UNL1       -0.2451
     23 O          62.4327   87.2431   11.8853 O.3     1  UNL1       -0.4494
     24 C          62.0272   86.2859   10.8040 C.3     1  UNL1        0.1694
     25 C          61.1312   86.7459    9.6925 C.3     1  UNL1        0.0473
     26 C          62.5177   84.8687   10.8342 C.3     1  UNL1        0.0473
@<TRIPOS>BOND
     1     1     2    1
     2     2     3    2
     3     3    21    1
     4    21    22    2
     5    21    23    1
     6    23    24    1
     7    24    25    1
     8    24    26    1
     9     3     4    1
    10     4    16    1
    11    16    17   ar
    12    17    18   ar
    13    18    19   ar
    14    19    20   ar
    15     4     5    1
    16     5     6   ar
    17     6     7   ar
    18     7     8   ar
    19     8     9   ar
    20     9    10   ar
    21    10    11   ar
    22    11    12   ar
    23    12    13   ar
    24     6    14    1
    25    14     2    1
    26    20    16   ar
    27    13     5   ar
    28    13     8   ar
    29    14    15    1
@<TRIPOS>MOLECULE
*****
 26 29 0 0 0
SMALL
GASTEIGER

@<TRIPOS>ATOM
      1 C          64.2332   83.1011   14.4868 C.3     1  UNL1        0.0472
      2 C          63.9164   84.3882   13.7847 C.2     1  UNL1        0.0324
      3 C          63.3144   84.3648   12.4110 C.2     1  UNL1        0.0905
      4 C          62.9976   85.6519   11.7089 C.3     1  UNL1        0.1747
      5 N          63.2829   86.9625   12.3804 N.ar    1  UNL1       -0.2903
      6 C          63.8849   86.9859   13.7541 C.ar    1  UNL1        0.2020
      7 N          64.0536   88.4195   14.1618 N.ar    1  UNL1       -0.2135
      8 C          63.5558   89.2821   13.0401 C.ar    1  UNL1        0.0999
      9 C          63.4748   90.7712   12.8790 C.ar    1  UNL1        0.0207
     10 C          62.9175   91.3598   11.6169 C.ar    1  UNL1        0.0016
     11 C          62.4412   90.4593   10.5159 C.ar    1  UNL1        0.0016
     12 C          62.5222   88.9702   10.6770 C.ar    1  UNL1        0.0188
     13 C          63.0795   88.3816   11.9391 C.ar    1  UNL1        0.0805
     14 N          64.2016   85.6988   14.4563 N.pl3   1  UNL1       -0.2873
     15 H          64.5967   85.7142   15.3579 H       1  UNL1        0.1547
     16 C          62.3956   85.6284   10.3351 C.ar    1  UNL1        0.1481
     17 C          63.1061   85.2568    9.0674 C.ar    1  UNL1        0.0385
     18 C          62.1270   85.3712    7.9368 C.ar    1  UNL1        0.0435
     19 C          60.8115   85.8135    8.5057 C.ar    1  UNL1        0.1792
     20 O          60.9775   85.9725    9.9880 O.2     1  UNL1       -0.4525
     21 C          63.0291   83.0541   11.7393 C.2     1  UNL1        0.3402
     22 O          63.9904   82.5055   10.7269 O.2     1  UNL1       -0.2451
     23 O          61.7828   82.2923   12.0802 O.3     1  UNL1       -0.4494
     24 C          61.8521   81.1194   13.0126 C.3     1  UNL1        0.1694
     25 C          62.7547   79.9635   12.6980 C.3     1  UNL1        0.0473
     26 C          61.0188   81.1025   14.2598 C.3     1  UNL1        0.0473
@<TRIPOS>BOND
     1     1     2    1
     2     2     3    2
     3     3    21    1
     4    21    22    2
     5    21    23    1
     6    23    24    1
     7    24    25    1
     8    24    26    1
     9     3     4    1
    10     4    16    1
    11    16    17   ar
    12    17    18   ar
    13    18    19   ar
    14    19    20   ar
    15     4     5    1
    16     5     6   ar
    17     6     7   ar
    18     7     8   ar
    19     8     9   ar
    20     9    10   ar
    21    10    11   ar
    22    11    12   ar
    23    12    13   ar
    24     6    14    1
    25    14     2    1
    26    20    16   ar
    27    13     5   ar
    28    13     8   ar
    29    14    15    1
@<TRIPOS>MOLECULE
*****
 26 29 0 0 0
SMALL
GASTEIGER

@<TRIPOS>ATOM
      1 C          66.4759   93.8958   12.6069 C.3     1  UNL1        0.0472
      2 C          65.4743   92.8007   12.3887 C.2     1  UNL1        0.0324
      3 C          65.1820   91.8219   13.4871 C.2     1  UNL1        0.0905
      4 C          64.1804   90.7268   13.2689 C.3     1  UNL1        0.1747
      5 N          63.4711   90.6105   11.9524 N.ar    1  UNL1       -0.2903
      6 C          63.7634   91.5893   10.8540 C.ar    1  UNL1        0.2020
      7 N          62.9143   91.2266    9.6719 N.ar    1  UNL1       -0.2135
      8 C          62.0972   90.0237   10.0396 C.ar    1  UNL1        0.0999
      9 C          61.0843   89.2259    9.2732 C.ar    1  UNL1        0.0207
     10 C          60.4155   88.0472    9.9163 C.ar    1  UNL1        0.0016
     11 C          60.7596   87.6665   11.3257 C.ar    1  UNL1        0.0016
     12 C          61.7725   88.4643   12.0921 C.ar    1  UNL1        0.0188
     13 C          62.4413   89.6429   11.4491 C.ar    1  UNL1        0.0805
     14 N          64.7650   92.6844   11.0721 N.pl3   1  UNL1       -0.2873
     15 H          64.9569   93.3269   10.3512 H       1  UNL1        0.1547
     16 C          63.8881   89.7480   14.3674 C.ar    1  UNL1        0.1481
     17 C          64.3711   88.3295   14.4359 C.ar    1  UNL1        0.0385
     18 C          63.8430   87.7208   15.7010 C.ar    1  UNL1        0.0435
     19 C          63.0337   88.7629   16.4143 C.ar    1  UNL1        0.1792
     20 O          63.0615   90.0158   15.5901 O.2     1  UNL1       -0.4525
     21 C          65.8913   91.9381   14.8037 C.2     1  UNL1        0.3402
     22 O          65.2175   92.6130   15.9615 O.2     1  UNL1       -0.2451
     23 O          67.2743   91.3795   14.9624 O.3     1  UNL1       -0.4494
     24 C          68.4653   92.2859   14.8625 C.3     1  UNL1        0.1694
     25 C          69.4775   92.0774   13.7754 C.3     1  UNL1        0.0473
     26 C          68.6441   93.4010   15.8499 C.3     1  UNL1        0.0473
@<TRIPOS>BOND
     1     1     2    1
     2     2     3    2
     3     3    21    1
     4    21    22    2
     5    21    23    1
     6    23    24    1
     7    24    25    1
     8    24    26    1
     9     3     4    1
    10     4    16    1
    11    16    17   ar
    12    17    18   ar
    13    18    19   ar
    14    19    20   ar
    15     4     5    1
    16     5     6   ar
    17     6     7   ar
    18     7     8   ar
    19     8     9   ar
    20     9    10   ar
    21    10    11   ar
    22    11    12   ar
    23    12    13   ar
    24     6    14    1
    25    14     2    1
    26    20    16   ar
    27    13     5   ar
    28    13     8   ar
    29    14    15    1
@<TRIPOS>MOLECULE
*****
 26 29 0 0 0
SMALL
GASTEIGER

@<TRIPOS>ATOM
      1 C          64.5289   90.0630   15.0043 C.3     1  UNL1        0.0472
      2 C          64.1937   88.7533   14.3543 C.2     1  UNL1        0.0324
      3 C          63.3136   88.7222   13.1400 C.2     1  UNL1        0.0905
      4 C          62.9784   87.4126   12.4900 C.3     1  UNL1        0.1747
      5 N          63.5232   86.1340   13.0543 N.ar    1  UNL1       -0.2903
      6 C          64.4033   86.1651   14.2686 C.ar    1  UNL1        0.2020
      7 N          64.7903   84.7536   14.5967 N.ar    1  UNL1       -0.2135
      8 C          64.1494   83.8501   13.5852 C.ar    1  UNL1        0.0999
      9 C          64.1778   82.3608   13.4091 C.ar    1  UNL1        0.0207
     10 C          63.4231   81.7246   12.2797 C.ar    1  UNL1        0.0016
     11 C          62.6400   82.5778   11.3263 C.ar    1  UNL1        0.0016
     12 C          62.6116   84.0672   11.5025 C.ar    1  UNL1        0.0188
     13 C          63.3664   84.7033   12.6319 C.ar    1  UNL1        0.0805
     14 N          64.7385   87.4748   14.9186 N.pl3   1  UNL1       -0.2873
     15 H          65.3161   87.4951   15.7156 H       1  UNL1        0.1547
     16 C          62.0984   87.3816   11.2756 C.ar    1  UNL1        0.1481
     17 C          62.5524   87.5304    9.8537 C.ar    1  UNL1        0.0385
     18 C          61.3443   87.4371    8.9694 C.ar    1  UNL1        0.0435
     19 C          60.1439   87.2305    9.8446 C.ar    1  UNL1        0.1792
     20 O          60.6099   87.1962   11.2700 O.2     1  UNL1       -0.4525
     21 C          62.7688   90.0008   12.5756 C.2     1  UNL1        0.3402
     22 O          61.3139   90.1063   12.2260 O.2     1  UNL1       -0.2451
     23 O          63.6788   91.1738   12.3609 O.3     1  UNL1       -0.4494
     24 C          64.0277   91.6072   10.9679 C.3     1  UNL1        0.1694
     25 C          63.1298   91.2444    9.8225 C.3     1  UNL1        0.0473
     26 C          65.2746   92.4034   10.7203 C.3     1  UNL1        0.0473
@<TRIPOS>BOND
     1     1     2    1
     2     2     3    2
     3     3    21    1
     4    21    22    2
     5    21    23    1
     6    23    24    1
     7    24    25    1
     8    24    26    1
     9     3     4    1
    10     4    16    1
    11    16    17   ar
    12    17    18   ar
    13    18    19   ar
    14    19    20   ar
    15     4     5    1
    16     5     6   ar
    17     6     7   ar
    18     7     8   ar
    19     8     9   ar
    20     9    10   ar
    21    10    11   ar
    22    11    12   ar
    23    12    13   ar
    24     6    14    1
    25    14     2    1
    26    20    16   ar
    27    13     5   ar
    28    13     8   ar
    29    14    15    1
@<TRIPOS>MOLECULE
*****
 26 29 0 0 0
SMALL
GASTEIGER

@<TRIPOS>ATOM
      1 C          63.2521   81.5707   10.3985 C.3     1  UNL1        0.0472
      2 C          63.1040   83.0215   10.7498 C.2     1  UNL1        0.0324
      3 C          63.2688   83.4695   12.1718 C.2     1  UNL1        0.0905
      4 C          63.1206   84.9202   12.5231 C.3     1  UNL1        0.1747
      5 N          62.8077   85.9230   11.4524 N.ar    1  UNL1       -0.2903
      6 C          62.6430   85.4750   10.0304 C.ar    1  UNL1        0.2020
      7 N          62.3389   86.6839    9.1959 N.ar    1  UNL1       -0.2135
      8 C          62.3157   87.8789   10.1022 C.ar    1  UNL1        0.0999
      9 C          62.0682   89.3345    9.8377 C.ar    1  UNL1        0.0207
     10 C          62.1105   90.3198   10.9679 C.ar    1  UNL1        0.0016
     11 C          62.4003   89.8496   12.3625 C.ar    1  UNL1        0.0016
     12 C          62.6478   88.3940   12.6270 C.ar    1  UNL1        0.0188
     13 C          62.6055   87.4087   11.4968 C.ar    1  UNL1        0.0805
     14 N          62.7911   84.0243    9.6791 N.pl3   1  UNL1       -0.2873
     15 H          62.6830   83.7303    8.7457 H       1  UNL1        0.1547
     16 C          63.2854   85.3682   13.9452 C.ar    1  UNL1        0.1481
     17 C          64.4399   86.1530   14.4943 C.ar    1  UNL1        0.0385
     18 C          64.1925   86.3797   15.9563 C.ar    1  UNL1        0.0435
     19 C          62.8854   85.7351   16.3108 C.ar    1  UNL1        0.1792
     20 O          62.3247   85.1099   15.0679 O.2     1  UNL1       -0.4525
     21 C          63.5817   82.4667   13.2426 C.2     1  UNL1        0.3402
     22 O          64.9777   81.9380   13.3901 O.2     1  UNL1       -0.2451
     23 O          62.4987   81.9926   14.1658 O.3     1  UNL1       -0.4494
     24 C          61.7219   80.7524   13.8363 C.3     1  UNL1        0.1694
     25 C          62.4088   79.5875   13.1876 C.3     1  UNL1        0.0473
     26 C          60.2582   80.6772   14.1556 C.3     1  UNL1        0.0473
@<TRIPOS>BOND
     1     1     2    1
     2     2     3    2
     3     3    21    1
     4    21    22    2
     5    21    23    1
     6    23    24    1
     7    24    25    1
     8    24    26    1
     9     3     4    1
    10     4    16    1
    11    16    17   ar
    12    17    18   ar
    13    18    19   ar
    14    19    20   ar
    15     4     5    1
    16     5     6   ar
    17     6     7   ar
    18     7     8   ar
    19     8     9   ar
    20     9    10   ar
    21    10    11   ar
    22    11    12   ar
    23    12    13   ar
    24     6    14    1
    25    14     2    1
    26    20    16   ar
    27    13     5   ar
    28    13     8   ar
    29    14    15    1
@<TRIPOS>MOLECULE
*****
 26 29 0 0 0
SMALL
GASTEIGER

@<TRIPOS>ATOM
      1 C          65.7887   92.3838   16.7637 C.3     1  UNL1        0.0472
      2 C          65.1796   92.0077   15.4454 C.2     1  UNL1        0.0324
      3 C          65.7468   92.5614   14.1720 C.2     1  UNL1        0.0905
      4 C          65.1377   92.1854   12.8538 C.3     1  UNL1        0.1747
      5 N          63.9614   91.2557   12.8090 N.ar    1  UNL1       -0.2903
      6 C          63.3941   90.7021   14.0825 C.ar    1  UNL1        0.2020
      7 N          62.2385   89.8142   13.7276 N.ar    1  UNL1       -0.2135
      8 C          62.0915   89.8190   12.2348 C.ar    1  UNL1        0.0999
      9 C          61.1256   89.1272   11.3191 C.ar    1  UNL1        0.0207
     10 C          61.2246   89.3263    9.8358 C.ar    1  UNL1        0.0016
     11 C          62.2895   90.2173    9.2680 C.ar    1  UNL1        0.0016
     12 C          63.2553   90.9091   10.1837 C.ar    1  UNL1        0.0188
     13 C          63.1563   90.7099   11.6671 C.ar    1  UNL1        0.0805
     14 N          64.0032   91.0781   15.4007 N.pl3   1  UNL1       -0.2873
     15 H          63.6309   90.7148   16.2365 H       1  UNL1        0.1547
     16 C          65.7050   92.7390   11.5803 C.ar    1  UNL1        0.1481
     17 C          66.9181   92.2289   10.8603 C.ar    1  UNL1        0.0385
     18 C          67.1216   93.0746    9.6383 C.ar    1  UNL1        0.0435
     19 C          66.0344   94.1074    9.6030 C.ar    1  UNL1        0.1792
     20 O          65.1589   93.9000   10.8032 O.2     1  UNL1       -0.4525
     21 C          66.9232   93.4910   14.2167 C.2     1  UNL1        0.3402
     22 O          66.7189   94.9676   14.0495 O.2     1  UNL1       -0.2451
     23 O          68.3038   92.9441   14.4286 O.3     1  UNL1       -0.4494
     24 C          68.9835   93.1167   15.7545 C.3     1  UNL1        0.1694
     25 C          69.2195   91.9270   16.6369 C.3     1  UNL1        0.0473
     26 C          69.4273   94.4792   16.1980 C.3     1  UNL1        0.0473
@<TRIPOS>BOND
     1     1     2    1
     2     2     3    2
     3     3    21    1
     4    21    22    2
     5    21    23    1
     6    23    24    1
     7    24    25    1
     8    24    26    1
     9     3     4    1
    10     4    16    1
    11    16    17   ar
    12    17    18   ar
    13    18    19   ar
    14    19    20   ar
    15     4     5    1
    16     5     6   ar
    17     6     7   ar
    18     7     8   ar
    19     8     9   ar
    20     9    10   ar
    21    10    11   ar
    22    11    12   ar
    23    12    13   ar
    24     6    14    1
    25    14     2    1
    26    20    16   ar
    27    13     5   ar
    28    13     8   ar
    29    14    15    1
@<TRIPOS>MOLECULE
*****
 26 29 0 0 0
SMALL
GASTEIGER

@<TRIPOS>ATOM
      1 C          64.3614   83.0088   13.4859 C.3     1  UNL1        0.0472
      2 C          63.7722   84.2881   12.9699 C.2     1  UNL1        0.0324
      3 C          64.0333   85.5781   13.6895 C.2     1  UNL1        0.0905
      4 C          63.4441   86.8574   13.1736 C.3     1  UNL1        0.1747
      5 N          62.5937   86.8467   11.9380 N.ar    1  UNL1       -0.2903
      6 C          62.3325   85.5568   11.2184 C.ar    1  UNL1        0.2020
      7 N          61.4614   85.8548   10.0342 N.ar    1  UNL1       -0.2135
      8 C          61.1841   87.3290   10.0220 C.ar    1  UNL1        0.0999
      9 C          60.3848   88.1922    9.0915 C.ar    1  UNL1        0.0207
     10 C          60.2853   89.6685    9.3376 C.ar    1  UNL1        0.0016
     11 C          60.9852   90.2815   10.5142 C.ar    1  UNL1        0.0016
     12 C          61.7845   89.4183   11.4447 C.ar    1  UNL1        0.0188
     13 C          61.8839   87.9420   11.1986 C.ar    1  UNL1        0.0805
     14 N          62.9218   84.2775   11.7343 N.pl3   1  UNL1       -0.2873
     15 H          62.7504   83.4309   11.2620 H       1  UNL1        0.1547
     16 C          63.7053   88.1473   13.8933 C.ar    1  UNL1        0.1481
     17 C          64.3712   89.3605   13.3147 C.ar    1  UNL1        0.0385
     18 C          64.4238   90.4135   14.3818 C.ar    1  UNL1        0.0435
     19 C          63.7905   89.8511   15.6197 C.ar    1  UNL1        0.1792
     20 O          63.3464   88.4505   15.3178 O.2     1  UNL1       -0.4525
     21 C          64.8837   85.5887   14.9252 C.2     1  UNL1        0.3402
     22 O          66.3156   86.0286   14.8463 O.2     1  UNL1       -0.2451
     23 O          64.3022   85.1596   16.2396 O.3     1  UNL1       -0.4494
     24 C          62.8487   85.3919   16.5283 C.3     1  UNL1        0.1694
     25 C          62.4414   86.3928   17.5686 C.3     1  UNL1        0.0473
     26 C          61.8026   84.6235   15.7766 C.3     1  UNL1        0.0473
@<TRIPOS>BOND
     1     1     2    1
     2     2     3    2
     3     3    21    1
     4    21    22    2
     5    21    23    1
     6    23    24    1
     7    24    25    1
     8    24    26    1
     9     3     4    1
    10     4    16    1
    11    16    17   ar
    12    17    18   ar
    13    18    19   ar
    14    19    20   ar
    15     4     5    1
    16     5     6   ar
    17     6     7   ar
    18     7     8   ar
    19     8     9   ar
    20     9    10   ar
    21    10    11   ar
    22    11    12   ar
    23    12    13   ar
    24     6    14    1
    25    14     2    1
    26    20    16   ar
    27    13     5   ar
    28    13     8   ar
    29    14    15    1
@<TRIPOS>MOLECULE
*****
 26 29 0 0 0
SMALL
GASTEIGER

@<TRIPOS>ATOM
      1 C          63.1524   92.4619    2.6357 C.3     1  UNL1        0.0472
      2 C          62.4837   92.7714    1.3292 C.2     1  UNL1        0.0324
      3 C          63.2420   93.4841    0.2488 C.2     1  UNL1        0.0905
      4 C          62.5732   93.7936   -1.0577 C.3     1  UNL1        0.1747
      5 N          61.1463   93.3905   -1.2839 N.ar    1  UNL1       -0.2903
      6 C          60.3880   92.6778   -0.2036 C.ar    1  UNL1        0.2020
      7 N          59.0030   92.4062   -0.7114 N.ar    1  UNL1       -0.2135
      8 C          58.9052   92.9510   -2.1056 C.ar    1  UNL1        0.0999
      9 C          57.7812   92.9718   -3.0985 C.ar    1  UNL1        0.0207
     10 C          57.9818   93.6008   -4.4454 C.ar    1  UNL1        0.0016
     11 C          59.3065   94.2091   -4.7992 C.ar    1  UNL1        0.0016
     12 C          60.4305   94.1884   -3.8062 C.ar    1  UNL1        0.0188
     13 C          60.2299   93.5593   -2.4594 C.ar    1  UNL1        0.0805
     14 N          61.0567   92.3683    1.1029 N.pl3   1  UNL1       -0.2873
     15 H          60.5590   91.9006    1.8120 H       1  UNL1        0.1547
     16 C          63.3316   94.5063   -2.1381 C.ar    1  UNL1        0.1481
     17 C          64.0590   93.8586   -3.2789 C.ar    1  UNL1        0.0385
     18 C          64.6726   94.9439   -4.1131 C.ar    1  UNL1        0.0435
     19 C          64.3244   96.2621   -3.4879 C.ar    1  UNL1        0.1792
     20 O          63.4956   95.9917   -2.2673 O.2     1  UNL1       -0.4525
     21 C          64.6690   93.8873    0.4750 C.2     1  UNL1        0.3402
     22 O          65.7470   92.8446    0.5056 O.2     1  UNL1       -0.2451
     23 O          65.0180   95.3329    0.6706 O.3     1  UNL1       -0.4494
     24 C          64.4361   96.0955    1.8237 C.3     1  UNL1        0.1694
     25 C          65.1919   96.1940    3.1156 C.3     1  UNL1        0.0473
     26 C          63.0983   96.7598    1.6850 C.3     1  UNL1        0.0473
@<TRIPOS>BOND
     1     1     2    1
     2     2     3    2
     3     3    21    1
     4    21    22    2
     5    21    23    1
     6    23    24    1
     7    24    25    1
     8    24    26    1
     9     3     4    1
    10     4    16    1
    11    16    17   ar
    12    17    18   ar
    13    18    19   ar
    14    19    20   ar
    15     4     5    1
    16     5     6   ar
    17     6     7   ar
    18     7     8   ar
    19     8     9   ar
    20     9    10   ar
    21    10    11   ar
    22    11    12   ar
    23    12    13   ar
    24     6    14    1
    25    14     2    1
    26    20    16   ar
    27    13     5   ar
    28    13     8   ar
    29    14    15    1
