@<TRIPOS>MOLECULE
*****
 33 36 0 0 0
SMALL
GASTEIGER

@<TRIPOS>ATOM
      1 C          62.8824   90.1327   12.3012 C.2     1  UNL1        0.2320
      2 O          62.2909   89.7118   13.6138 O.2     1  UNL1       -0.2744
      3 N          63.0594   89.1277   11.2018 N.am    1  UNL1       -0.2639
      4 H          63.4476   89.4039   10.3403 H       1  UNL1        0.1567
      5 C          62.6451   87.7020   11.4150 C.ar    1  UNL1        0.1655
      6 N          63.0434   86.8313   12.5696 N.ar    1  UNL1       -0.2239
      7 C          62.4041   85.4878   12.3793 C.ar    1  UNL1        0.0913
      8 C          61.6107   85.5281   11.1070 C.ar    1  UNL1        0.0573
      9 S          61.7596   86.8965   10.5110 S.2     1  UNL1       -0.0508
     10 C          62.5352   84.3106   13.2997 C.ar    1  UNL1        0.0403
     11 C          62.5661   84.3623   14.7984 C.ar    1  UNL1        0.1021
     12 N          62.7084   82.9587   15.3078 N.ar    1  UNL1       -0.2269
     13 C          62.7656   82.0394   14.1239 C.ar    1  UNL1        0.1407
     14 N          62.9012   80.5495   14.0156 N.ar    1  UNL1       -0.3367
     15 C          62.9299   79.8952   12.6662 C.ar    1  UNL1        0.0850
     16 C          62.8228   80.7307   11.4251 C.ar    1  UNL1        0.0748
     17 CL         62.8514   80.0763   10.0756 Cl      1  UNL1       -0.0807
     18 C          62.6871   82.2206   11.5333 C.ar    1  UNL1        0.0160
     19 C          62.6585   82.8750   12.8827 C.ar    1  UNL1        0.0378
     20 H          62.9715   80.0012   14.8302 H       1  UNL1        0.1674
     21 C          63.2968   91.5584   12.0879 C.3     1  UNL1        0.1117
     22 C          67.0665   92.0281   13.2363 C.ar    1  UNL1        0.0641
     23 C          67.6630   92.6443   12.0058 C.ar    1  UNL1        0.0158
     24 C          66.8042   92.8986   10.8026 C.ar    1  UNL1        0.0010
     25 C          65.3487   92.5367   10.8299 C.ar    1  UNL1       -0.0037
     26 C          64.7522   91.9204   12.0606 C.ar    1  UNL1       -0.0118
     27 C          65.6111   91.6661   13.2638 C.ar    1  UNL1        0.0121
     28 N          67.9253   91.7738   14.4396 N.pl3   1  UNL1       -0.2187
     29 H          68.1495   90.8507   14.6981 H       1  UNL1        0.1734
     30 C          68.9599   94.0781   16.0582 C.3     1  UNL1        0.1996
     31 S          68.4425   92.9259   15.2489 S.O2    1  UNL1        0.0558
     32 O          69.7549   92.8439   14.5270 O.2     1  UNL1       -0.1544
     33 O          67.1303   93.0080   15.9708 O.2     1  UNL1       -0.1544
@<TRIPOS>BOND
     1    30    31    1
     2    31    32    2
     3    31    33    2
     4    31    28    1
     5    28    22    1
     6    22    23   ar
     7    23    24   ar
     8    24    25   ar
     9    25    26   ar
    10    26    21    1
    11    21     1    1
    12     1     2    2
    13     1     3   am
    14     3     5    1
    15     5     6   ar
    16     6     7   ar
    17     7    10    1
    18    10    11   ar
    19    11    12   ar
    20    12    13   ar
    21    13    14   ar
    22    14    15   ar
    23    15    16   ar
    24    16    17    1
    25    16    18   ar
    26    18    19   ar
    27     7     8   ar
    28     8     9   ar
    29    26    27   ar
    30    27    22   ar
    31     9     5   ar
    32    19    10   ar
    33    19    13    1
    34    28    29    1
    35     3     4    1
    36    14    20    1
@<TRIPOS>MOLECULE
*****
 33 36 0 0 0
SMALL
GASTEIGER

@<TRIPOS>ATOM
      1 C          63.4462   90.0228   14.4796 C.2     1  UNL1        0.2320
      2 O          63.7366   88.5813   14.7758 O.2     1  UNL1       -0.2744
      3 N          62.6738   90.3947   13.2488 N.am    1  UNL1       -0.2639
      4 H          62.4831   91.3408   13.0544 H       1  UNL1        0.1567
      5 C          62.1918   89.3252   12.3141 C.ar    1  UNL1        0.1655
      6 N          62.9756   88.1276   11.8653 N.ar    1  UNL1       -0.2239
      7 C          62.1097   87.3276   10.9379 C.ar    1  UNL1        0.0913
      8 C          60.7906   88.0308   10.8134 C.ar    1  UNL1        0.0573
      9 S          60.8413   89.2653   11.6639 S.2     1  UNL1       -0.0508
     10 C          62.4951   86.0490   10.2548 C.ar    1  UNL1        0.0403
     11 C          62.6056   85.8392    8.7737 C.ar    1  UNL1        0.1021
     12 N          63.0165   84.4162    8.5365 N.ar    1  UNL1       -0.2269
     13 C          63.1599   83.7465    9.8711 C.ar    1  UNL1        0.1407
     14 N          63.5422   82.3483   10.2564 N.ar    1  UNL1       -0.3367
     15 C          63.6024   81.9591   11.7038 C.ar    1  UNL1        0.0850
     16 C          63.2801   82.9682   12.7658 C.ar    1  UNL1        0.0748
     17 CL         63.3403   82.5790   14.2132 Cl      1  UNL1       -0.0807
     18 C          62.8978   84.3665   12.3804 C.ar    1  UNL1        0.0160
     19 C          62.8376   84.7557   10.9331 C.ar    1  UNL1        0.0378
     20 H          63.7537   81.6859    9.5594 H       1  UNL1        0.1674
     21 C          63.9281   91.0924   15.4143 C.3     1  UNL1        0.1117
     22 C          67.2227   92.3654   13.6045 C.ar    1  UNL1        0.0641
     23 C          67.9369   93.0250   14.7469 C.ar    1  UNL1        0.0158
     24 C          67.3148   93.0404   16.1117 C.ar    1  UNL1        0.0010
     25 C          65.9785   92.3962   16.3342 C.ar    1  UNL1       -0.0037
     26 C          65.2643   91.7366   15.1918 C.ar    1  UNL1       -0.0118
     27 C          65.8865   91.7212   13.8270 C.ar    1  UNL1        0.0121
     28 N          67.8448   92.3500   12.2397 N.pl3   1  UNL1       -0.2187
     29 H          68.7065   91.8959   12.0966 H       1  UNL1        0.1734
     30 C          66.4629   93.7026    9.9459 C.3     1  UNL1        0.1996
     31 S          67.1539   93.0263   11.0929 S.O2    1  UNL1        0.0558
     32 O          67.5955   91.9237   10.1766 O.2     1  UNL1       -0.1544
     33 O          66.7122   94.1288   12.0090 O.2     1  UNL1       -0.1544
@<TRIPOS>BOND
     1    30    31    1
     2    31    32    2
     3    31    33    2
     4    31    28    1
     5    28    22    1
     6    22    23   ar
     7    23    24   ar
     8    24    25   ar
     9    25    26   ar
    10    26    21    1
    11    21     1    1
    12     1     2    2
    13     1     3   am
    14     3     5    1
    15     5     6   ar
    16     6     7   ar
    17     7    10    1
    18    10    11   ar
    19    11    12   ar
    20    12    13   ar
    21    13    14   ar
    22    14    15   ar
    23    15    16   ar
    24    16    17    1
    25    16    18   ar
    26    18    19   ar
    27     7     8   ar
    28     8     9   ar
    29    26    27   ar
    30    27    22   ar
    31     9     5   ar
    32    19    10   ar
    33    19    13    1
    34    28    29    1
    35     3     4    1
    36    14    20    1
@<TRIPOS>MOLECULE
*****
 33 36 0 0 0
SMALL
GASTEIGER

@<TRIPOS>ATOM
      1 C          62.7554   89.9896   11.8407 C.2     1  UNL1        0.2320
      2 O          62.1897   89.6267   13.1817 O.2     1  UNL1       -0.2744
      3 N          62.9402   88.9318   10.7934 N.am    1  UNL1       -0.2639
      4 H          63.3115   89.1700    9.9133 H       1  UNL1        0.1567
      5 C          62.5594   87.5111   11.0871 C.ar    1  UNL1        0.1655
      6 N          62.9406   86.7308   12.3102 N.ar    1  UNL1       -0.2239
      7 C          62.3474   85.3586   12.1884 C.ar    1  UNL1        0.0913
      8 C          61.5995   85.2906   10.8899 C.ar    1  UNL1        0.0573
      9 S          61.7305   86.6208   10.2093 S.2     1  UNL1       -0.0508
     10 C          62.4790   84.2491   13.1892 C.ar    1  UNL1        0.0403
     11 C          62.4990   84.4051   14.6809 C.ar    1  UNL1        0.1021
     12 N          62.6460   83.0411   15.2876 N.ar    1  UNL1       -0.2269
     13 C          62.7168   82.0422   14.1709 C.ar    1  UNL1        0.1407
     14 N          62.8618   80.5493   14.1674 N.ar    1  UNL1       -0.3367
     15 C          62.9037   79.8029   12.8670 C.ar    1  UNL1        0.0850
     16 C          62.8005   80.5494   11.5701 C.ar    1  UNL1        0.0748
     17 CL         62.8423   79.8030   10.2696 Cl      1  UNL1       -0.0807
     18 C          62.6554   82.0424   11.5736 C.ar    1  UNL1        0.0160
     19 C          62.6135   82.7887   12.8740 C.ar    1  UNL1        0.0378
     20 H          62.9296   80.0593   15.0186 H       1  UNL1        0.1674
     21 C          63.1362   91.4105   11.5469 C.3     1  UNL1        0.1117
     22 C          66.6835   93.1705   11.2851 C.ar    1  UNL1        0.0641
     23 C          67.2266   92.9198   12.6606 C.ar    1  UNL1        0.0158
     24 C          66.4062   92.1660   13.6650 C.ar    1  UNL1        0.0010
     25 C          65.0427   91.6629   13.2938 C.ar    1  UNL1       -0.0037
     26 C          64.4996   91.9136   11.9181 C.ar    1  UNL1       -0.0118
     27 C          65.3201   92.6674   10.9138 C.ar    1  UNL1        0.0121
     28 N          67.5039   93.9243   10.2807 N.pl3   1  UNL1       -0.2187
     29 H          68.4013   93.6015   10.0362 H       1  UNL1        0.1734
     30 C          66.4102   96.4156    9.0167 C.3     1  UNL1        0.1996
     31 S          66.9571   95.1699    9.6488 S.O2    1  UNL1        0.0558
     32 O          67.1718   94.5743    8.2889 O.2     1  UNL1       -0.1544
     33 O          66.7423   95.7656   11.0086 O.2     1  UNL1       -0.1544
@<TRIPOS>BOND
     1    30    31    1
     2    31    32    2
     3    31    33    2
     4    31    28    1
     5    28    22    1
     6    22    23   ar
     7    23    24   ar
     8    24    25   ar
     9    25    26   ar
    10    26    21    1
    11    21     1    1
    12     1     2    2
    13     1     3   am
    14     3     5    1
    15     5     6   ar
    16     6     7   ar
    17     7    10    1
    18    10    11   ar
    19    11    12   ar
    20    12    13   ar
    21    13    14   ar
    22    14    15   ar
    23    15    16   ar
    24    16    17    1
    25    16    18   ar
    26    18    19   ar
    27     7     8   ar
    28     8     9   ar
    29    26    27   ar
    30    27    22   ar
    31     9     5   ar
    32    19    10   ar
    33    19    13    1
    34    28    29    1
    35     3     4    1
    36    14    20    1
@<TRIPOS>MOLECULE
*****
 33 36 0 0 0
SMALL
GASTEIGER

@<TRIPOS>ATOM
      1 C          61.7095   87.2340   10.9368 C.2     1  UNL1        0.2320
      2 O          60.8379   88.3983   10.5701 O.2     1  UNL1       -0.2744
      3 N          62.9001   87.4391   11.8259 N.am    1  UNL1       -0.2639
      4 H          63.4722   86.6748   12.0666 H       1  UNL1        0.1567
      5 C          63.2190   88.8084   12.3483 C.ar    1  UNL1        0.1655
      6 N          63.8755   89.1208   13.6603 N.ar    1  UNL1       -0.2239
      7 C          63.9996   90.6113   13.7734 C.ar    1  UNL1        0.0913
      8 C          63.4198   91.2203   12.5313 C.ar    1  UNL1        0.0573
      9 S          62.9373   90.1061   11.6506 S.2     1  UNL1       -0.0508
     10 C          64.5985   91.3613   14.9262 C.ar    1  UNL1        0.0403
     11 C          63.8793   91.7813   16.1738 C.ar    1  UNL1        0.1021
     12 N          64.8581   92.5025   17.0524 N.ar    1  UNL1       -0.2269
     13 C          66.1821   92.5283   16.3478 C.ar    1  UNL1        0.1407
     14 N          67.5130   93.1028   16.7331 N.ar    1  UNL1       -0.3367
     15 C          68.6835   92.9720   15.8043 C.ar    1  UNL1        0.0850
     16 C          68.5231   92.2667   14.4902 C.ar    1  UNL1        0.0748
     17 CL         69.6937   92.1359   13.5614 Cl      1  UNL1       -0.0807
     18 C          67.1922   91.6921   14.1050 C.ar    1  UNL1        0.0160
     19 C          66.0216   91.8229   15.0338 C.ar    1  UNL1        0.0378
     20 H          67.6183   93.5657   17.5956 H       1  UNL1        0.1674
     21 C          61.3907   85.8645   10.4143 C.3     1  UNL1        0.1117
     22 C          63.3735   82.8329   12.0353 C.ar    1  UNL1        0.0641
     23 C          64.3458   82.5116   10.9392 C.ar    1  UNL1        0.0158
     24 C          64.3331   83.3080    9.6682 C.ar    1  UNL1        0.0010
     25 C          63.3480   84.4257    9.4932 C.ar    1  UNL1       -0.0037
     26 C          62.3757   84.7469   10.5893 C.ar    1  UNL1       -0.0118
     27 C          62.3885   83.9505   11.8604 C.ar    1  UNL1        0.0121
     28 N          63.3862   82.0365   13.3064 N.pl3   1  UNL1       -0.2187
     29 H          64.2138   81.9662   13.8350 H       1  UNL1        0.1734
     30 C          60.8897   80.6580   14.2379 C.3     1  UNL1        0.1996
     31 S          62.1380   81.3473   13.7721 S.O2    1  UNL1        0.0558
     32 O          61.9050   82.4432   14.7696 O.2     1  UNL1       -0.1544
     33 O          62.3709   80.2514   12.7748 O.2     1  UNL1       -0.1544
@<TRIPOS>BOND
     1    30    31    1
     2    31    32    2
     3    31    33    2
     4    31    28    1
     5    28    22    1
     6    22    23   ar
     7    23    24   ar
     8    24    25   ar
     9    25    26   ar
    10    26    21    1
    11    21     1    1
    12     1     2    2
    13     1     3   am
    14     3     5    1
    15     5     6   ar
    16     6     7   ar
    17     7    10    1
    18    10    11   ar
    19    11    12   ar
    20    12    13   ar
    21    13    14   ar
    22    14    15   ar
    23    15    16   ar
    24    16    17    1
    25    16    18   ar
    26    18    19   ar
    27     7     8   ar
    28     8     9   ar
    29    26    27   ar
    30    27    22   ar
    31     9     5   ar
    32    19    10   ar
    33    19    13    1
    34    28    29    1
    35     3     4    1
    36    14    20    1
@<TRIPOS>MOLECULE
*****
 33 36 0 0 0
SMALL
GASTEIGER

@<TRIPOS>ATOM
      1 C          63.6119   89.4559   15.4090 C.2     1  UNL1        0.2320
      2 O          63.4425   89.0408   13.9776 O.2     1  UNL1       -0.2744
      3 N          63.5223   88.4328   16.5022 N.am    1  UNL1       -0.2639
      4 H          63.6335   88.7052   17.4417 H       1  UNL1        0.1567
      5 C          63.2632   86.9947   16.1641 C.ar    1  UNL1        0.1655
      6 N          63.7766   86.2662   14.9575 N.ar    1  UNL1       -0.2239
      7 C          63.2759   84.8537   15.0208 C.ar    1  UNL1        0.0913
      8 C          62.4530   84.7090   16.2665 C.ar    1  UNL1        0.0573
      9 S          62.4452   86.0322   16.9731 S.2     1  UNL1       -0.0508
     10 C          63.5500   83.7752   14.0150 C.ar    1  UNL1        0.0403
     11 C          64.0028   82.3784   14.3213 C.ar    1  UNL1        0.1021
     12 N          64.1520   81.6441   13.0218 N.ar    1  UNL1       -0.2269
     13 C          63.7914   82.5871   11.9124 C.ar    1  UNL1        0.1407
     14 N          63.7538   82.4166   10.4227 N.ar    1  UNL1       -0.3367
     15 C          63.3442   83.5632    9.5467 C.ar    1  UNL1        0.0850
     16 C          62.9721   84.8803   10.1605 C.ar    1  UNL1        0.0748
     17 CL         62.5624   86.0270    9.2844 Cl      1  UNL1       -0.0807
     18 C          63.0097   85.0508   11.6503 C.ar    1  UNL1        0.0160
     19 C          63.4194   83.9042   12.5262 C.ar    1  UNL1        0.0378
     20 H          63.9980   81.5521   10.0198 H       1  UNL1        0.1674
     21 C          63.8710   90.8942   15.7472 C.3     1  UNL1        0.1117
     22 C          66.1335   92.3966   12.8534 C.ar    1  UNL1        0.0641
     23 C          67.1609   93.1405   13.6541 C.ar    1  UNL1        0.0158
     24 C          67.0917   93.1356   15.1525 C.ar    1  UNL1        0.0010
     25 C          65.9950   92.3868   15.8503 C.ar    1  UNL1       -0.0037
     26 C          64.9676   91.6429   15.0495 C.ar    1  UNL1       -0.0118
     27 C          65.0369   91.6478   13.5511 C.ar    1  UNL1        0.0121
     28 N          66.2027   92.4014   11.3550 N.pl3   1  UNL1       -0.2187
     29 H          65.9172   91.6082   10.8465 H       1  UNL1        0.1734
     30 C          67.2112   94.8281    9.9079 C.3     1  UNL1        0.1996
     31 S          66.7070   93.6147   10.6315 S.O2    1  UNL1        0.0558
     32 O          65.3921   94.2988   10.8623 O.2     1  UNL1       -0.1544
     33 O          68.0218   92.9307   10.4006 O.2     1  UNL1       -0.1544
@<TRIPOS>BOND
     1    30    31    1
     2    31    32    2
     3    31    33    2
     4    31    28    1
     5    28    22    1
     6    22    23   ar
     7    23    24   ar
     8    24    25   ar
     9    25    26   ar
    10    26    21    1
    11    21     1    1
    12     1     2    2
    13     1     3   am
    14     3     5    1
    15     5     6   ar
    16     6     7   ar
    17     7    10    1
    18    10    11   ar
    19    11    12   ar
    20    12    13   ar
    21    13    14   ar
    22    14    15   ar
    23    15    16   ar
    24    16    17    1
    25    16    18   ar
    26    18    19   ar
    27     7     8   ar
    28     8     9   ar
    29    26    27   ar
    30    27    22   ar
    31     9     5   ar
    32    19    10   ar
    33    19    13    1
    34    28    29    1
    35     3     4    1
    36    14    20    1
@<TRIPOS>MOLECULE
*****
 33 36 0 0 0
SMALL
GASTEIGER

@<TRIPOS>ATOM
      1 C          63.5597   89.4257   13.6063 C.2     1  UNL1        0.2320
      2 O          63.6835   87.9802   13.2251 O.2     1  UNL1       -0.2744
      3 N          62.4020   90.2370   13.1048 N.am    1  UNL1       -0.2639
      4 H          62.3207   91.1858   13.3550 H       1  UNL1        0.1567
      5 C          61.3681   89.6030   12.2223 C.ar    1  UNL1        0.1655
      6 N          61.6336   88.8592   10.9470 N.ar    1  UNL1       -0.2239
      7 C          60.3168   88.3979   10.3966 C.ar    1  UNL1        0.0913
      8 C          59.2373   88.8565   11.3316 C.ar    1  UNL1        0.0573
      9 S          59.8871   89.6013   12.4600 S.2     1  UNL1       -0.0508
     10 C          60.1149   87.6153    9.1329 C.ar    1  UNL1        0.0403
     11 C          59.0070   87.8127    8.1412 C.ar    1  UNL1        0.1021
     12 N          59.1928   86.8174    7.0345 N.ar    1  UNL1       -0.2269
     13 C          60.4155   86.0047    7.3423 C.ar    1  UNL1        0.1407
     14 N          61.0835   84.8795    6.6092 N.ar    1  UNL1       -0.3367
     15 C          62.3214   84.2474    7.1731 C.ar    1  UNL1        0.0850
     16 C          62.8913   84.7406    8.4700 C.ar    1  UNL1        0.0748
     17 CL         64.1293   84.1084    9.0338 Cl      1  UNL1       -0.0807
     18 C          62.2233   85.8658    9.2031 C.ar    1  UNL1        0.0160
     19 C          60.9853   86.4979    8.6392 C.ar    1  UNL1        0.0378
     20 H          60.7094   84.5558    5.7580 H       1  UNL1        0.1674
     21 C          64.5936   90.0598   14.4888 C.3     1  UNL1        0.1117
     22 C          65.7301   93.1393   12.2583 C.ar    1  UNL1        0.0641
     23 C          66.5638   93.9081   13.2401 C.ar    1  UNL1        0.0158
     24 C          66.7408   93.3942   14.6382 C.ar    1  UNL1        0.0010
     25 C          66.0840   92.1114   15.0545 C.ar    1  UNL1       -0.0037
     26 C          65.2503   91.3426   14.0726 C.ar    1  UNL1       -0.0118
     27 C          65.0734   91.8566   12.6745 C.ar    1  UNL1        0.0121
     28 N          65.5531   93.6533   10.8603 N.pl3   1  UNL1       -0.2187
     29 H          64.6495   93.7470   10.4810 H       1  UNL1        0.1734
     30 C          67.9528   94.3957    9.2200 C.3     1  UNL1        0.1996
     31 S          66.7530   94.0244   10.0401 S.O2    1  UNL1        0.0558
     32 O          66.3066   95.4565   10.0352 O.2     1  UNL1       -0.1544
     33 O          67.1994   92.5924   10.0450 O.2     1  UNL1       -0.1544
@<TRIPOS>BOND
     1    30    31    1
     2    31    32    2
     3    31    33    2
     4    31    28    1
     5    28    22    1
     6    22    23   ar
     7    23    24   ar
     8    24    25   ar
     9    25    26   ar
    10    26    21    1
    11    21     1    1
    12     1     2    2
    13     1     3   am
    14     3     5    1
    15     5     6   ar
    16     6     7   ar
    17     7    10    1
    18    10    11   ar
    19    11    12   ar
    20    12    13   ar
    21    13    14   ar
    22    14    15   ar
    23    15    16   ar
    24    16    17    1
    25    16    18   ar
    26    18    19   ar
    27     7     8   ar
    28     8     9   ar
    29    26    27   ar
    30    27    22   ar
    31     9     5   ar
    32    19    10   ar
    33    19    13    1
    34    28    29    1
    35     3     4    1
    36    14    20    1
@<TRIPOS>MOLECULE
*****
 33 36 0 0 0
SMALL
GASTEIGER

@<TRIPOS>ATOM
      1 C          62.7722   85.1167   10.4403 C.2     1  UNL1        0.2320
      2 O          63.0828   85.9707    9.2469 O.2     1  UNL1       -0.2744
      3 N          62.6015   85.7478   11.7903 N.am    1  UNL1       -0.2639
      4 H          62.3977   85.1873   12.5735 H       1  UNL1        0.1567
      5 C          62.7414   87.2329   11.9469 C.ar    1  UNL1        0.1655
      6 N          63.6268   87.9361   12.9326 N.ar    1  UNL1       -0.2239
      7 C          63.4531   89.4135   12.7404 C.ar    1  UNL1        0.0913
      8 C          62.4603   89.6236   11.6357 C.ar    1  UNL1        0.0573
      9 S          62.0205   88.2759   11.1454 S.2     1  UNL1       -0.0508
     10 C          64.1499   90.4916   13.5164 C.ar    1  UNL1        0.0403
     11 C          64.2201   90.5971   15.0110 C.ar    1  UNL1        0.1021
     12 N          65.0123   91.8242   15.3523 N.ar    1  UNL1       -0.2269
     13 C          65.4317   92.4772   14.0686 C.ar    1  UNL1        0.1407
     14 N          66.2300   93.7153   13.7864 N.ar    1  UNL1       -0.3367
     15 C          66.4953   94.1298   12.3695 C.ar    1  UNL1        0.0850
     16 C          65.9622   93.3062   11.2348 C.ar    1  UNL1        0.0748
     17 CL         66.2275   93.7208    9.8178 Cl      1  UNL1       -0.0807
     18 C          65.1639   92.0681   11.5170 C.ar    1  UNL1        0.0160
     19 C          64.8986   91.6536   12.9340 C.ar    1  UNL1        0.0378
     20 H          66.5799   94.2559   14.5311 H       1  UNL1        0.1674
     21 C          62.6323   83.6314   10.2836 C.3     1  UNL1        0.1117
     22 C          62.6743   82.4555   14.0738 C.ar    1  UNL1        0.0641
     23 C          62.7425   80.9663   13.9079 C.ar    1  UNL1        0.0158
     24 C          62.7739   80.3654   12.5338 C.ar    1  UNL1        0.0010
     25 C          62.7372   81.2538   11.3257 C.ar    1  UNL1       -0.0037
     26 C          62.6691   82.7431   11.4917 C.ar    1  UNL1       -0.0118
     27 C          62.6376   83.3439   12.8658 C.ar    1  UNL1        0.0121
     28 N          62.6429   83.0564   15.4478 N.pl3   1  UNL1       -0.2187
     29 H          62.2356   82.5590   16.1934 H       1  UNL1        0.1734
     30 C          63.8213   85.7739   15.9239 C.3     1  UNL1        0.1996
     31 S          63.2321   84.4151   15.6859 S.O2    1  UNL1        0.0558
     32 O          64.6088   83.8524   15.4906 O.2     1  UNL1       -0.1544
     33 O          61.8555   84.9779   15.8812 O.2     1  UNL1       -0.1544
@<TRIPOS>BOND
     1    30    31    1
     2    31    32    2
     3    31    33    2
     4    31    28    1
     5    28    22    1
     6    22    23   ar
     7    23    24   ar
     8    24    25   ar
     9    25    26   ar
    10    26    21    1
    11    21     1    1
    12     1     2    2
    13     1     3   am
    14     3     5    1
    15     5     6   ar
    16     6     7   ar
    17     7    10    1
    18    10    11   ar
    19    11    12   ar
    20    12    13   ar
    21    13    14   ar
    22    14    15   ar
    23    15    16   ar
    24    16    17    1
    25    16    18   ar
    26    18    19   ar
    27     7     8   ar
    28     8     9   ar
    29    26    27   ar
    30    27    22   ar
    31     9     5   ar
    32    19    10   ar
    33    19    13    1
    34    28    29    1
    35     3     4    1
    36    14    20    1
@<TRIPOS>MOLECULE
*****
 33 36 0 0 0
SMALL
GASTEIGER

@<TRIPOS>ATOM
      1 C          62.1577   86.6591   10.4571 C.2     1  UNL1        0.2320
      2 O          62.8513   86.9272    9.1544 O.2     1  UNL1       -0.2744
      3 N          61.9691   87.7687   11.4487 N.am    1  UNL1       -0.2639
      4 H          61.5139   87.5927   12.3037 H       1  UNL1        0.1567
      5 C          62.4740   89.1464   11.1376 C.ar    1  UNL1        0.1655
      6 N          63.7025   89.7862   11.7134 N.ar    1  UNL1       -0.2239
      7 C          63.8269   91.1614   11.1278 C.ar    1  UNL1        0.0913
      8 C          62.6753   91.3717   10.1898 C.ar    1  UNL1        0.0573
      9 S          61.8392   90.1264   10.1959 S.2     1  UNL1       -0.0508
     10 C          64.9123   92.1525   11.4273 C.ar    1  UNL1        0.0403
     11 C          65.6610   92.9719   10.4184 C.ar    1  UNL1        0.1021
     12 N          66.6509   93.8240   11.1560 N.ar    1  UNL1       -0.2269
     13 C          66.5141   93.5311   12.6208 C.ar    1  UNL1        0.1407
     14 N          67.2290   94.0716   13.8235 N.ar    1  UNL1       -0.3367
     15 C          66.8695   93.5791   15.1939 C.ar    1  UNL1        0.0850
     16 C          65.7949   92.5461   15.3616 C.ar    1  UNL1        0.0748
     17 CL         65.4353   92.0535   16.7321 Cl      1  UNL1       -0.0807
     18 C          65.0799   92.0055   14.1589 C.ar    1  UNL1        0.0160
     19 C          65.4395   92.4981   12.7885 C.ar    1  UNL1        0.0378
     20 H          67.9343   94.7497   13.7134 H       1  UNL1        0.1674
     21 C          61.6527   85.2813   10.7683 C.3     1  UNL1        0.1117
     22 C          63.5588   83.6034   13.8182 C.ar    1  UNL1        0.0641
     23 C          64.2042   82.4319   13.1392 C.ar    1  UNL1        0.0158
     24 C          63.9991   82.2102   11.6699 C.ar    1  UNL1        0.0010
     25 C          63.1486   83.1600   10.8796 C.ar    1  UNL1       -0.0037
     26 C          62.5032   84.3316   11.5586 C.ar    1  UNL1       -0.0118
     27 C          62.7083   84.5532   13.0279 C.ar    1  UNL1        0.0121
     28 N          63.7638   83.8252   15.2875 N.pl3   1  UNL1       -0.2187
     29 H          64.0090   83.0701   15.8697 H       1  UNL1        0.1734
     30 C          63.4270   86.5695   16.4517 C.3     1  UNL1        0.1996
     31 S          63.5953   85.1973   15.8696 S.O2    1  UNL1        0.0558
     32 O          64.9168   85.6058   15.2890 O.2     1  UNL1       -0.1544
     33 O          62.2740   84.7888   16.4502 O.2     1  UNL1       -0.1544
@<TRIPOS>BOND
     1    30    31    1
     2    31    32    2
     3    31    33    2
     4    31    28    1
     5    28    22    1
     6    22    23   ar
     7    23    24   ar
     8    24    25   ar
     9    25    26   ar
    10    26    21    1
    11    21     1    1
    12     1     2    2
    13     1     3   am
    14     3     5    1
    15     5     6   ar
    16     6     7   ar
    17     7    10    1
    18    10    11   ar
    19    11    12   ar
    20    12    13   ar
    21    13    14   ar
    22    14    15   ar
    23    15    16   ar
    24    16    17    1
    25    16    18   ar
    26    18    19   ar
    27     7     8   ar
    28     8     9   ar
    29    26    27   ar
    30    27    22   ar
    31     9     5   ar
    32    19    10   ar
    33    19    13    1
    34    28    29    1
    35     3     4    1
    36    14    20    1
@<TRIPOS>MOLECULE
*****
 33 36 0 0 0
SMALL
GASTEIGER

@<TRIPOS>ATOM
      1 C          63.5291   89.5575   15.4212 C.2     1  UNL1        0.2320
      2 O          63.3936   89.1301   13.9898 O.2     1  UNL1       -0.2744
      3 N          63.4708   88.5356   16.5177 N.am    1  UNL1       -0.2639
      4 H          63.5597   88.8160   17.4572 H       1  UNL1        0.1567
      5 C          63.2772   87.0864   16.1828 C.ar    1  UNL1        0.1655
      6 N          63.8446   86.3733   14.9914 N.ar    1  UNL1       -0.2239
      7 C          63.4002   84.9420   15.0527 C.ar    1  UNL1        0.0913
      8 C          62.5581   84.7704   16.2821 C.ar    1  UNL1        0.0573
      9 S          62.4821   86.0957   16.9805 S.2     1  UNL1       -0.0508
     10 C          63.7385   83.8703   14.0591 C.ar    1  UNL1        0.0403
     11 C          64.9329   83.8544   13.1519 C.ar    1  UNL1        0.1021
     12 N          64.8743   82.6007   12.3305 N.ar    1  UNL1       -0.2269
     13 C          63.6436   81.8418   12.7300 C.ar    1  UNL1        0.1407
     14 N          63.0715   80.5377   12.2590 N.ar    1  UNL1       -0.3367
     15 C          61.7975   80.0182   12.8564 C.ar    1  UNL1        0.0850
     16 C          61.0955   80.8029   13.9248 C.ar    1  UNL1        0.0748
     17 CL         59.8214   80.2834   14.5221 Cl      1  UNL1       -0.0807
     18 C          61.6676   82.1071   14.3958 C.ar    1  UNL1        0.0160
     19 C          62.9416   82.6265   13.7984 C.ar    1  UNL1        0.0378
     20 H          63.5323   80.0226   11.5578 H       1  UNL1        0.1674
     21 C          63.7227   91.0067   15.7562 C.3     1  UNL1        0.1117
     22 C          66.7312   92.5026   13.6439 C.ar    1  UNL1        0.0641
     23 C          67.5987   93.0532   14.7367 C.ar    1  UNL1        0.0158
     24 C          67.1742   92.9217   16.1694 C.ar    1  UNL1        0.0010
     25 C          65.8821   92.2395   16.5093 C.ar    1  UNL1       -0.0037
     26 C          65.0147   91.6889   15.4163 C.ar    1  UNL1       -0.0118
     27 C          65.4393   91.8204   13.9837 C.ar    1  UNL1        0.0121
     28 N          67.1557   92.6341   12.2113 N.pl3   1  UNL1       -0.2187
     29 H          67.9549   92.1580   11.8890 H       1  UNL1        0.1734
     30 C          65.5693   94.3477   10.3279 C.3     1  UNL1        0.1996
     31 S          66.3625   93.4909   11.2696 S.O2    1  UNL1        0.0558
     32 O          65.9662   92.2704   10.4928 O.2     1  UNL1       -0.1544
     33 O          66.7587   94.7114   12.0463 O.2     1  UNL1       -0.1544
@<TRIPOS>BOND
     1    30    31    1
     2    31    32    2
     3    31    33    2
     4    31    28    1
     5    28    22    1
     6    22    23   ar
     7    23    24   ar
     8    24    25   ar
     9    25    26   ar
    10    26    21    1
    11    21     1    1
    12     1     2    2
    13     1     3   am
    14     3     5    1
    15     5     6   ar
    16     6     7   ar
    17     7    10    1
    18    10    11   ar
    19    11    12   ar
    20    12    13   ar
    21    13    14   ar
    22    14    15   ar
    23    15    16   ar
    24    16    17    1
    25    16    18   ar
    26    18    19   ar
    27     7     8   ar
    28     8     9   ar
    29    26    27   ar
    30    27    22   ar
    31     9     5   ar
    32    19    10   ar
    33    19    13    1
    34    28    29    1
    35     3     4    1
    36    14    20    1
