@<TRIPOS>MOLECULE
*****
 26 28 0 0 0
SMALL
GASTEIGER

@<TRIPOS>ATOM
      1 C          65.2819   92.5134   11.6631 C.3     1  UNL1        0.1368
      2 O          64.8776   91.7440   10.4406 O.3     1  UNL1       -0.3803
      3 H          64.3623   90.9656   10.7042 H       1  UNL1        0.2108
      4 C          65.9841   93.5181   10.7985 C.ar    1  UNL1        0.0316
      5 C          65.5391   94.9505   10.8003 C.ar    1  UNL1        0.0026
      6 C          66.2413   95.9552    9.9357 C.ar    1  UNL1        0.0295
      7 C          67.3886   95.5274    9.0694 C.ar    1  UNL1        0.1424
      8 F          68.0908   96.5321    8.2048 F       1  UNL1       -0.2041
      9 C          67.8337   94.0949    9.0675 C.ar    1  UNL1        0.0590
     10 C          67.1315   93.0903    9.9321 C.ar    1  UNL1        0.1406
     11 F          67.5766   91.6579    9.9303 F       1  UNL1       -0.2044
     12 C          64.6700   91.1916   13.6970 C.3     1  UNL1        0.0092
     13 C          64.5796   91.5087   12.5276 C.3     1  UNL1        0.0731
     14 C          63.5067   90.6373   11.9448 C.ar    1  UNL1        0.0919
     15 N          62.5476   91.2004   10.9383 N.ar    1  UNL1       -0.2260
     16 C          61.4748   90.3290   10.3556 C.ar    1  UNL1        0.1987
     17 N          61.3611   88.8946   10.7792 N.ar    1  UNL1       -0.2201
     18 C          62.3202   88.3315   11.7857 C.ar    1  UNL1        0.1314
     19 C          63.3930   89.2029   12.3685 C.ar    1  UNL1        0.1727
     20 F          64.3522   88.6399   13.3750 F       1  UNL1       -0.2013
     21 C          65.6862   93.2828   12.8856 C.3     1  UNL1        0.1623
     22 N          67.0154   93.0225   13.5301 N.ar    1  UNL1       -0.2080
     23 C          67.4882   93.5893   14.8359 C.ar    1  UNL1        0.2216
     24 N          68.8703   93.0667   15.0947 N.ar    1  UNL1       -0.1048
     25 N          69.2516   92.1770   13.9489 N.ar    1  UNL1       -0.0226
     26 N          68.1053   92.1496   12.9819 N.ar    1  UNL1       -0.0428
@<TRIPOS>BOND
     1    13    12    1
     2    13    14    1
     3    14    15   ar
     4    15    16   ar
     5    16    17   ar
     6    17    18   ar
     7    18    19   ar
     8    19    20    1
     9    13     1    1
    10     1     2    1
    11     1    21    1
    12    21    22    1
    13    22    23   ar
    14    23    24   ar
    15    24    25   ar
    16    25    26   ar
    17     1     4    1
    18     4     5   ar
    19     5     6   ar
    20     6     7   ar
    21     7     8    1
    22     7     9   ar
    23     9    10   ar
    24    10    11    1
    25    19    14   ar
    26    26    22   ar
    27    10     4   ar
    28     2     3    1
@<TRIPOS>MOLECULE
*****
 26 28 0 0 0
SMALL
GASTEIGER

@<TRIPOS>ATOM
      1 C          61.6676   89.6568   11.4108 C.3     1  UNL1        0.1368
      2 O          60.7645   90.7756   11.8383 O.3     1  UNL1       -0.3803
      3 H          59.8421   90.4776   11.8040 H       1  UNL1        0.2108
      4 C          62.8613   90.5411   11.6182 C.ar    1  UNL1        0.0316
      5 C          63.5232   91.1958   10.4420 C.ar    1  UNL1        0.0026
      6 C          64.7169   92.0801   10.6495 C.ar    1  UNL1        0.0295
      7 C          65.2488   92.3097   12.0330 C.ar    1  UNL1        0.1424
      8 F          66.4425   93.1940   12.2404 F       1  UNL1       -0.2041
      9 C          64.5870   91.6550   13.2093 C.ar    1  UNL1        0.0590
     10 C          63.3932   90.7707   13.0018 C.ar    1  UNL1        0.1406
     11 F          62.7314   90.1160   14.1780 F       1  UNL1       -0.2044
     12 C          59.6125   88.3312   11.9378 C.3     1  UNL1        0.0092
     13 C          60.4739   88.7725   11.2033 C.3     1  UNL1        0.0731
     14 C          60.1589   88.2467    9.8342 C.ar    1  UNL1        0.0919
     15 N          60.1719   86.7690    9.5770 N.ar    1  UNL1       -0.2260
     16 C          59.8569   86.2432    8.2080 C.ar    1  UNL1        0.1987
     17 N          59.5289   87.1952    7.0962 N.ar    1  UNL1       -0.2201
     18 C          59.5158   88.6729    7.3534 C.ar    1  UNL1        0.1314
     19 C          59.8308   89.1986    8.7224 C.ar    1  UNL1        0.1727
     20 F          59.8177   90.6764    8.9797 F       1  UNL1       -0.2013
     21 C          62.5707   88.5380   10.9832 C.3     1  UNL1        0.1623
     22 N          62.8607   87.4068   11.9246 N.ar    1  UNL1       -0.2080
     23 C          62.4735   85.9716   11.7241 C.ar    1  UNL1        0.2216
     24 N          62.9625   85.1900   12.9074 N.ar    1  UNL1       -0.1048
     25 N          63.6518   86.1422   13.8392 N.ar    1  UNL1       -0.0226
     26 N          63.5890   87.5122   13.2318 N.ar    1  UNL1       -0.0428
@<TRIPOS>BOND
     1    13    12    1
     2    13    14    1
     3    14    15   ar
     4    15    16   ar
     5    16    17   ar
     6    17    18   ar
     7    18    19   ar
     8    19    20    1
     9    13     1    1
    10     1     2    1
    11     1    21    1
    12    21    22    1
    13    22    23   ar
    14    23    24   ar
    15    24    25   ar
    16    25    26   ar
    17     1     4    1
    18     4     5   ar
    19     5     6   ar
    20     6     7   ar
    21     7     8    1
    22     7     9   ar
    23     9    10   ar
    24    10    11    1
    25    19    14   ar
    26    26    22   ar
    27    10     4   ar
    28     2     3    1
@<TRIPOS>MOLECULE
*****
 26 28 0 0 0
SMALL
GASTEIGER

@<TRIPOS>ATOM
      1 C          63.5631   85.0554   12.5665 C.3     1  UNL1        0.1368
      2 O          63.2058   86.4831   12.8561 O.3     1  UNL1       -0.3803
      3 H          63.5206   86.7219   13.7420 H       1  UNL1        0.2108
      4 C          62.9204   85.1685   11.2159 C.ar    1  UNL1        0.0316
      5 C          61.6732   85.9840   11.0447 C.ar    1  UNL1        0.0026
      6 C          61.0305   86.0971    9.6941 C.ar    1  UNL1        0.0295
      7 C          61.6351   85.3947    8.5146 C.ar    1  UNL1        0.1424
      8 F          60.9924   85.5078    7.1640 F       1  UNL1       -0.2041
      9 C          62.8823   84.5791    8.6858 C.ar    1  UNL1        0.0590
     10 C          63.5250   84.4660   10.0364 C.ar    1  UNL1        0.1406
     11 F          64.7722   83.6505   10.2076 F       1  UNL1       -0.2044
     12 C          65.1385   84.2998   14.3569 C.3     1  UNL1        0.0092
     13 C          64.2058   84.9422   13.9171 C.3     1  UNL1        0.0731
     14 C          63.6782   85.7461   15.0684 C.ar    1  UNL1        0.0919
     15 N          64.0088   87.2051   15.1784 N.ar    1  UNL1       -0.2260
     16 C          63.4812   88.0089   16.3297 C.ar    1  UNL1        0.1987
     17 N          62.6230   87.3537   17.3710 N.ar    1  UNL1       -0.2201
     18 C          62.2924   85.8948   17.2610 C.ar    1  UNL1        0.1314
     19 C          62.8200   85.0910   16.1097 C.ar    1  UNL1        0.1727
     20 F          62.4894   83.6320   15.9997 F       1  UNL1       -0.2013
     21 C          63.9204   83.6276   12.2769 C.3     1  UNL1        0.1623
     22 N          63.2085   82.5168   12.9904 N.ar    1  UNL1       -0.2080
     23 C          63.8191   81.2212   13.4361 C.ar    1  UNL1        0.2216
     24 N          62.7488   80.4102   14.1046 N.ar    1  UNL1       -0.1048
     25 N          61.4768   81.2045   14.0721 N.ar    1  UNL1       -0.0226
     26 N          61.7609   82.5064   13.3834 N.ar    1  UNL1       -0.0428
@<TRIPOS>BOND
     1    13    12    1
     2    13    14    1
     3    14    15   ar
     4    15    16   ar
     5    16    17   ar
     6    17    18   ar
     7    18    19   ar
     8    19    20    1
     9    13     1    1
    10     1     2    1
    11     1    21    1
    12    21    22    1
    13    22    23   ar
    14    23    24   ar
    15    24    25   ar
    16    25    26   ar
    17     1     4    1
    18     4     5   ar
    19     5     6   ar
    20     6     7   ar
    21     7     8    1
    22     7     9   ar
    23     9    10   ar
    24    10    11    1
    25    19    14   ar
    26    26    22   ar
    27    10     4   ar
    28     2     3    1
@<TRIPOS>MOLECULE
*****
 26 28 0 0 0
SMALL
GASTEIGER

@<TRIPOS>ATOM
      1 C          62.6487   87.7163   11.6800 C.3     1  UNL1        0.1368
      2 O          63.5803   87.0508   12.6491 O.3     1  UNL1       -0.3803
      3 H          63.3982   86.0983   12.6705 H       1  UNL1        0.2108
      4 C          63.2769   89.0433   11.9875 C.ar    1  UNL1        0.0316
      5 C          63.3675   90.0951   10.9219 C.ar    1  UNL1        0.0026
      6 C          63.9956   91.4221   11.2294 C.ar    1  UNL1        0.0295
      7 C          64.5332   91.6972   12.6024 C.ar    1  UNL1        0.1424
      8 F          65.1614   93.0242   12.9099 F       1  UNL1       -0.2041
      9 C          64.4426   90.6454   13.6681 C.ar    1  UNL1        0.0590
     10 C          63.8144   89.3184   13.3606 C.ar    1  UNL1        0.1406
     11 F          63.7238   88.2666   14.4261 F       1  UNL1       -0.2044
     12 C          61.1266   86.0298   10.6323 C.3     1  UNL1        0.0092
     13 C          62.0205   86.3893   11.3725 C.3     1  UNL1        0.0731
     14 C          62.5098   85.1502   12.0619 C.ar    1  UNL1        0.0919
     15 N          62.2277   84.9423   13.5204 N.ar    1  UNL1       -0.2260
     16 C          62.7170   83.7032   14.2097 C.ar    1  UNL1        0.1987
     17 N          63.4884   82.6720   13.4406 N.ar    1  UNL1       -0.2201
     18 C          63.7705   82.8799   11.9821 C.ar    1  UNL1        0.1314
     19 C          63.2812   84.1190   11.2928 C.ar    1  UNL1        0.1727
     20 F          63.5633   84.3269    9.8343 F       1  UNL1       -0.2013
     21 C          61.7171   88.3819   10.7109 C.3     1  UNL1        0.1623
     22 N          60.5602   89.1909   11.2179 N.ar    1  UNL1       -0.2080
     23 C          60.0511   90.4704   10.6231 C.ar    1  UNL1        0.2216
     24 N          58.8854   90.9326   11.4463 N.ar    1  UNL1       -0.1048
     25 N          58.6741   89.9389   12.5498 N.ar    1  UNL1       -0.0226
     26 N          59.7091   88.8624   12.4087 N.ar    1  UNL1       -0.0428
@<TRIPOS>BOND
     1    13    12    1
     2    13    14    1
     3    14    15   ar
     4    15    16   ar
     5    16    17   ar
     6    17    18   ar
     7    18    19   ar
     8    19    20    1
     9    13     1    1
    10     1     2    1
    11     1    21    1
    12    21    22    1
    13    22    23   ar
    14    23    24   ar
    15    24    25   ar
    16    25    26   ar
    17     1     4    1
    18     4     5   ar
    19     5     6   ar
    20     6     7   ar
    21     7     8    1
    22     7     9   ar
    23     9    10   ar
    24    10    11    1
    25    19    14   ar
    26    26    22   ar
    27    10     4   ar
    28     2     3    1
@<TRIPOS>MOLECULE
*****
 26 28 0 0 0
SMALL
GASTEIGER

@<TRIPOS>ATOM
      1 C          61.9511   87.7106   11.4302 C.3     1  UNL1        0.1368
      2 O          63.3613   87.9832   11.8626 O.3     1  UNL1       -0.3803
      3 H          63.4346   88.9014   12.1665 H       1  UNL1        0.2108
      4 C          62.3295   86.3008   11.0847 C.ar    1  UNL1        0.0316
      5 C          62.2615   85.2282   12.1309 C.ar    1  UNL1        0.0026
      6 C          62.6399   83.8184   11.7854 C.ar    1  UNL1        0.0295
      7 C          63.0863   83.4813   10.3937 C.ar    1  UNL1        0.1424
      8 F          63.4647   82.0716   10.0481 F       1  UNL1       -0.2041
      9 C          63.1544   84.5540    9.3473 C.ar    1  UNL1        0.0590
     10 C          62.7760   85.9638    9.6928 C.ar    1  UNL1        0.1406
     11 F          62.8440   87.0365    8.6466 F       1  UNL1       -0.2044
     12 C          60.5172   89.7179   11.8460 C.3     1  UNL1        0.0092
     13 C          61.5727   89.1204   11.7757 C.3     1  UNL1        0.0731
     14 C          62.6361   90.1162   12.1330 C.ar    1  UNL1        0.0919
     15 N          63.1003   90.2405   13.5539 N.ar    1  UNL1       -0.2260
     16 C          64.1636   91.2363   13.9111 C.ar    1  UNL1        0.1987
     17 N          64.7627   92.1079   12.8474 N.ar    1  UNL1       -0.2201
     18 C          64.2985   91.9837   11.4265 C.ar    1  UNL1        0.1314
     19 C          63.2351   90.9878   11.0693 C.ar    1  UNL1        0.1727
     20 F          62.7708   90.8636    9.6483 F       1  UNL1       -0.2013
     21 C          60.5409   87.4381   10.9978 C.3     1  UNL1        0.1623
     22 N          60.1220   87.7192    9.5852 N.ar    1  UNL1       -0.2080
     23 C          59.4601   86.7489    8.6521 C.ar    1  UNL1        0.2216
     24 N          59.2205   87.4501    7.3479 N.ar    1  UNL1       -0.1048
     25 N          59.7342   88.8536    7.4748 N.ar    1  UNL1       -0.0226
     26 N          60.2914   89.0199    8.8575 N.ar    1  UNL1       -0.0428
@<TRIPOS>BOND
     1    13    12    1
     2    13    14    1
     3    14    15   ar
     4    15    16   ar
     5    16    17   ar
     6    17    18   ar
     7    18    19   ar
     8    19    20    1
     9    13     1    1
    10     1     2    1
    11     1    21    1
    12    21    22    1
    13    22    23   ar
    14    23    24   ar
    15    24    25   ar
    16    25    26   ar
    17     1     4    1
    18     4     5   ar
    19     5     6   ar
    20     6     7   ar
    21     7     8    1
    22     7     9   ar
    23     9    10   ar
    24    10    11    1
    25    19    14   ar
    26    26    22   ar
    27    10     4   ar
    28     2     3    1
@<TRIPOS>MOLECULE
*****
 26 28 0 0 0
SMALL
GASTEIGER

@<TRIPOS>ATOM
      1 C          61.9397   87.6169   11.3928 C.3     1  UNL1        0.1368
      2 O          63.3321   87.9079   11.8688 O.3     1  UNL1       -0.3803
      3 H          63.3681   88.8059   12.2336 H       1  UNL1        0.2108
      4 C          62.3731   86.2468   10.9626 C.ar    1  UNL1        0.0316
      5 C          62.7278   85.9882    9.5283 C.ar    1  UNL1        0.0026
      6 C          63.1612   84.6181    9.0981 C.ar    1  UNL1        0.0295
      7 C          63.2398   83.5066   10.1023 C.ar    1  UNL1        0.1424
      8 F          63.6732   82.1365    9.6721 F       1  UNL1       -0.2041
      9 C          62.8850   83.7652   11.5367 C.ar    1  UNL1        0.0590
     10 C          62.4517   85.1352   11.9668 C.ar    1  UNL1        0.1406
     11 F          62.0969   85.3938   13.4011 F       1  UNL1       -0.2044
     12 C          60.4366   89.5620   11.8571 C.3     1  UNL1        0.0092
     13 C          61.5064   88.9870   11.8230 C.3     1  UNL1        0.0731
     14 C          62.5174   89.9633   12.3472 C.ar    1  UNL1        0.0919
     15 N          62.8447   89.9909   13.8107 N.ar    1  UNL1       -0.2260
     16 C          63.8557   90.9671   14.3349 C.ar    1  UNL1        0.1987
     17 N          64.5394   91.9158   13.3954 N.ar    1  UNL1       -0.2201
     18 C          64.2120   91.8883   11.9319 C.ar    1  UNL1        0.1314
     19 C          63.2011   90.9120   11.4077 C.ar    1  UNL1        0.1727
     20 F          62.8737   90.8844    9.9441 F       1  UNL1       -0.2013
     21 C          60.5473   87.3259   10.9168 C.3     1  UNL1        0.1623
     22 N          60.1415   87.6882    9.5190 N.ar    1  UNL1       -0.2080
     23 C          59.3628   86.8214    8.5743 C.ar    1  UNL1        0.2216
     24 N          59.1831   87.5785    7.2919 N.ar    1  UNL1       -0.1048
     25 N          59.8507   88.9131    7.4439 N.ar    1  UNL1       -0.0226
     26 N          60.4430   88.9809    8.8203 N.ar    1  UNL1       -0.0428
@<TRIPOS>BOND
     1    13    12    1
     2    13    14    1
     3    14    15   ar
     4    15    16   ar
     5    16    17   ar
     6    17    18   ar
     7    18    19   ar
     8    19    20    1
     9    13     1    1
    10     1     2    1
    11     1    21    1
    12    21    22    1
    13    22    23   ar
    14    23    24   ar
    15    24    25   ar
    16    25    26   ar
    17     1     4    1
    18     4     5   ar
    19     5     6   ar
    20     6     7   ar
    21     7     8    1
    22     7     9   ar
    23     9    10   ar
    24    10    11    1
    25    19    14   ar
    26    26    22   ar
    27    10     4   ar
    28     2     3    1
@<TRIPOS>MOLECULE
*****
 26 28 0 0 0
SMALL
GASTEIGER

@<TRIPOS>ATOM
      1 C          64.0571   90.1556   13.2665 C.3     1  UNL1        0.1368
      2 O          63.3471   91.2613   12.5431 O.3     1  UNL1       -0.3803
      3 H          62.6454   90.8862   11.9881 H       1  UNL1        0.2108
      4 C          64.9569   91.1617   13.9209 C.ar    1  UNL1        0.0316
      5 C          64.9008   91.3639   15.4061 C.ar    1  UNL1        0.0026
      6 C          65.8006   92.3699   16.0606 C.ar    1  UNL1        0.0295
      7 C          66.7564   93.1738   15.2299 C.ar    1  UNL1        0.1424
      8 F          67.6561   94.1798   15.8843 F       1  UNL1       -0.2041
      9 C          66.8125   92.9716   13.7446 C.ar    1  UNL1        0.0590
     10 C          65.9128   91.9655   13.0901 C.ar    1  UNL1        0.1406
     11 F          65.9688   91.7633   11.6049 F       1  UNL1       -0.2044
     12 C          63.2052   87.9446   12.4640 C.3     1  UNL1        0.0092
     13 C          63.1574   89.1496   12.6120 C.3     1  UNL1        0.0731
     14 C          61.8838   89.5963   11.9573 C.ar    1  UNL1        0.0919
     15 N          60.6203   89.6895   12.7603 N.ar    1  UNL1       -0.2260
     16 C          59.3469   90.1362   12.1055 C.ar    1  UNL1        0.1987
     17 N          59.3369   90.4896   10.6478 N.ar    1  UNL1       -0.2201
     18 C          60.6004   90.3964    9.8448 C.ar    1  UNL1        0.1314
     19 C          61.8739   89.9497   10.4995 C.ar    1  UNL1        0.1727
     20 F          63.1374   89.8565    9.6965 F       1  UNL1       -0.2013
     21 C          64.7672   89.0500   13.9899 C.3     1  UNL1        0.1623
     22 N          64.0608   88.2853   15.0697 N.ar    1  UNL1       -0.2080
     23 C          64.2131   86.8210   15.3572 C.ar    1  UNL1        0.2216
     24 N          63.3244   86.4814   16.5169 N.ar    1  UNL1       -0.1048
     25 N          62.6228   87.7358   16.9462 N.ar    1  UNL1       -0.0226
     26 N          63.0779   88.8507   16.0518 N.ar    1  UNL1       -0.0428
@<TRIPOS>BOND
     1    13    12    1
     2    13    14    1
     3    14    15   ar
     4    15    16   ar
     5    16    17   ar
     6    17    18   ar
     7    18    19   ar
     8    19    20    1
     9    13     1    1
    10     1     2    1
    11     1    21    1
    12    21    22    1
    13    22    23   ar
    14    23    24   ar
    15    24    25   ar
    16    25    26   ar
    17     1     4    1
    18     4     5   ar
    19     5     6   ar
    20     6     7   ar
    21     7     8    1
    22     7     9   ar
    23     9    10   ar
    24    10    11    1
    25    19    14   ar
    26    26    22   ar
    27    10     4   ar
    28     2     3    1
@<TRIPOS>MOLECULE
*****
 26 28 0 0 0
SMALL
GASTEIGER

@<TRIPOS>ATOM
      1 C          63.5712   85.5486   13.0532 C.3     1  UNL1        0.1368
      2 O          63.0104   84.7528   11.9121 O.3     1  UNL1       -0.3803
      3 H          63.2325   83.8161   12.0311 H       1  UNL1        0.2108
      4 C          63.0086   86.8036   12.4545 C.ar    1  UNL1        0.0316
      5 C          63.5772   88.1377   12.8377 C.ar    1  UNL1        0.0026
      6 C          63.0146   89.3927   12.2390 C.ar    1  UNL1        0.0295
      7 C          61.8836   89.3136   11.2569 C.ar    1  UNL1        0.1424
      8 F          61.3210   90.5686   10.6582 F       1  UNL1       -0.2041
      9 C          61.3150   87.9794   10.8736 C.ar    1  UNL1        0.0590
     10 C          61.8775   86.7244   11.4724 C.ar    1  UNL1        0.1406
     11 F          61.3090   85.3903   11.0891 F       1  UNL1       -0.2044
     12 C          65.1426   84.0355   14.2778 C.3     1  UNL1        0.0092
     13 C          64.1337   84.2936   13.6520 C.3     1  UNL1        0.0731
     14 C          63.3857   82.9998   13.5219 C.ar    1  UNL1        0.0919
     15 N          62.2295   82.7072   14.4315 N.ar    1  UNL1       -0.2260
     16 C          61.4816   81.4135   14.3014 C.ar    1  UNL1        0.1987
     17 N          61.8899   80.4125   13.2617 N.ar    1  UNL1       -0.2201
     18 C          63.0462   80.7050   12.3520 C.ar    1  UNL1        0.1314
     19 C          63.7941   81.9987   12.4822 C.ar    1  UNL1        0.1727
     20 F          64.9504   82.2914   11.5725 F       1  UNL1       -0.2013
     21 C          64.1319   86.3444   14.1944 C.3     1  UNL1        0.1623
     22 N          63.3497   86.4850   15.4665 N.ar    1  UNL1       -0.2080
     23 C          63.4232   87.6374   16.4239 C.ar    1  UNL1        0.2216
     24 N          62.4755   87.3625   17.5537 N.ar    1  UNL1       -0.1048
     25 N          61.8163   86.0403   17.2946 N.ar    1  UNL1       -0.0226
     26 N          62.3566   85.4979   16.0047 N.ar    1  UNL1       -0.0428
@<TRIPOS>BOND
     1    13    12    1
     2    13    14    1
     3    14    15   ar
     4    15    16   ar
     5    16    17   ar
     6    17    18   ar
     7    18    19   ar
     8    19    20    1
     9    13     1    1
    10     1     2    1
    11     1    21    1
    12    21    22    1
    13    22    23   ar
    14    23    24   ar
    15    24    25   ar
    16    25    26   ar
    17     1     4    1
    18     4     5   ar
    19     5     6   ar
    20     6     7   ar
    21     7     8    1
    22     7     9   ar
    23     9    10   ar
    24    10    11    1
    25    19    14   ar
    26    26    22   ar
    27    10     4   ar
    28     2     3    1
@<TRIPOS>MOLECULE
*****
 26 28 0 0 0
SMALL
GASTEIGER

@<TRIPOS>ATOM
      1 C          63.5019   88.8365   12.5967 C.3     1  UNL1        0.1368
      2 O          64.3378   88.6782   13.8321 O.3     1  UNL1       -0.3803
      3 H          64.6766   89.5447   14.1065 H       1  UNL1        0.2108
      4 C          63.2416   87.3593   12.5835 C.ar    1  UNL1        0.0316
      5 C          62.4625   86.7451   11.4585 C.ar    1  UNL1        0.0026
      6 C          62.2023   85.2679   11.4453 C.ar    1  UNL1        0.0295
      7 C          62.7212   84.4050   12.5571 C.ar    1  UNL1        0.1424
      8 F          62.4609   82.9278   12.5439 F       1  UNL1       -0.2041
      9 C          63.5003   85.0192   13.6821 C.ar    1  UNL1        0.0590
     10 C          63.7606   86.4964   13.6953 C.ar    1  UNL1        0.1406
     11 F          64.5397   87.1107   14.8203 F       1  UNL1       -0.2044
     12 C          63.6811   91.1926   11.7749 C.3     1  UNL1        0.0092
     13 C          63.7621   90.3137   12.6099 C.3     1  UNL1        0.0731
     14 C          64.2304   90.9816   13.8688 C.ar    1  UNL1        0.0919
     15 N          63.3855   90.9248   15.1069 N.ar    1  UNL1       -0.2260
     16 C          63.8538   91.5926   16.3657 C.ar    1  UNL1        0.1987
     17 N          65.1670   92.3172   16.3865 N.ar    1  UNL1       -0.2201
     18 C          66.0119   92.3740   15.1484 C.ar    1  UNL1        0.1314
     19 C          65.5436   91.7062   13.8896 C.ar    1  UNL1        0.1727
     20 F          66.3885   91.7629   12.6514 F       1  UNL1       -0.2013
     21 C          62.6660   88.9948   11.3613 C.3     1  UNL1        0.1623
     22 N          61.2832   89.5675   11.4597 N.ar    1  UNL1       -0.2080
     23 C          60.5847   90.3718   10.4035 C.ar    1  UNL1        0.2216
     24 N          59.2258   90.7378   10.9227 N.ar    1  UNL1       -0.1048
     25 N          59.0844   90.1599   12.2996 N.ar    1  UNL1       -0.0226
     26 N          60.3559   89.4366   12.6315 N.ar    1  UNL1       -0.0428
@<TRIPOS>BOND
     1    13    12    1
     2    13    14    1
     3    14    15   ar
     4    15    16   ar
     5    16    17   ar
     6    17    18   ar
     7    18    19   ar
     8    19    20    1
     9    13     1    1
    10     1     2    1
    11     1    21    1
    12    21    22    1
    13    22    23   ar
    14    23    24   ar
    15    24    25   ar
    16    25    26   ar
    17     1     4    1
    18     4     5   ar
    19     5     6   ar
    20     6     7   ar
    21     7     8    1
    22     7     9   ar
    23     9    10   ar
    24    10    11    1
    25    19    14   ar
    26    26    22   ar
    27    10     4   ar
    28     2     3    1
