@<TRIPOS>MOLECULE
*****
 27 30 0 0 0
SMALL
GASTEIGER

@<TRIPOS>ATOM
      1 C          66.5862   94.8283   11.1764 C.3     1  UNL1        0.0534
      2 C          65.8688   93.6294   11.7223 C.ar    1  UNL1        0.0730
      3 N          64.8393   92.8128   10.9988 N.ar    1  UNL1       -0.2299
      4 C          64.3892   91.7153   11.9170 C.ar    1  UNL1        0.1604
      5 C          63.3923   90.6079   11.7443 C.ar    1  UNL1        0.0814
      6 C          63.1467   89.6388   12.8625 C.ar    1  UNL1        0.0381
      7 C          63.8980   89.7770   14.1534 C.ar    1  UNL1        0.1034
      8 C          64.8949   90.8844   14.3261 C.ar    1  UNL1        0.1005
      9 N          65.1405   91.8536   13.2079 N.ar    1  UNL1       -0.2905
     10 C          66.0549   93.0365   13.0875 C.ar    1  UNL1        0.0567
     11 C          66.9911   93.5385   14.1466 C.3     1  UNL1        0.0517
     12 N          63.6524   88.8079   15.2717 N.ar    1  UNL1       -0.2064
     13 C          63.1247   89.1486   16.6338 C.ar    1  UNL1        0.2017
     14 N          63.0376   87.8792   17.4281 N.ar    1  UNL1       -0.2004
     15 C          63.5115   86.7538   16.5568 C.ar    1  UNL1        0.2214
     16 N          63.8914   87.3278   15.2241 N.ar    1  UNL1       -0.1408
     17 N          62.6410   90.4696   10.4534 N.pl3   1  UNL1       -0.3266
     18 H          63.0702   90.7233    9.6044 H       1  UNL1        0.1472
     19 C          61.2358   89.9450   10.4559 C.3     1  UNL1        0.1152
     20 C          60.8759   88.7605    9.6090 C.ar    1  UNL1        0.0081
     21 C          59.9717   88.9324    8.4244 C.ar    1  UNL1        0.0005
     22 C          59.6118   87.7480    7.5774 C.ar    1  UNL1        0.0294
     23 C          60.1560   86.3915    7.9149 C.ar    1  UNL1        0.1410
     24 F          59.7962   85.2070    7.0679 F       1  UNL1       -0.2041
     25 C          61.0601   86.2195    9.0994 C.ar    1  UNL1        0.0408
     26 C          61.4201   87.4041    9.9464 C.ar    1  UNL1        0.0575
     27 CL         62.3242   87.2321   11.1309 Cl      1  UNL1       -0.0824
@<TRIPOS>BOND
     1     1     2    1
     2     2     3   ar
     3     3     4   ar
     4     4     5   ar
     5     5    17    1
     6    17    19    1
     7    19    20    1
     8    20    21   ar
     9    21    22   ar
    10    22    23   ar
    11    23    24    1
    12    23    25   ar
    13    25    26   ar
    14    26    27    1
    15     5     6   ar
    16     6     7   ar
    17     7    12    1
    18    12    13   ar
    19    13    14   ar
    20    14    15   ar
    21    15    16   ar
    22     7     8   ar
    23     8     9   ar
    24     9    10   ar
    25    10    11    1
    26    10     2   ar
    27     9     4   ar
    28    26    20   ar
    29    16    12   ar
    30    17    18    1
@<TRIPOS>MOLECULE
*****
 27 30 0 0 0
SMALL
GASTEIGER

@<TRIPOS>ATOM
      1 C          60.9614   86.3711    9.2343 C.3     1  UNL1        0.0534
      2 C          61.7235   86.9200   10.4039 C.ar    1  UNL1        0.0730
      3 N          62.2517   86.1272   11.5626 N.ar    1  UNL1       -0.2299
      4 C          62.9459   87.0754   12.4949 C.ar    1  UNL1        0.1604
      5 C          63.6555   86.8614   13.7990 C.ar    1  UNL1        0.0814
      6 C          64.2659   88.0261   14.5206 C.ar    1  UNL1        0.0381
      7 C          64.1668   89.4048   13.9381 C.ar    1  UNL1        0.1034
      8 C          63.4572   89.6187   12.6340 C.ar    1  UNL1        0.1005
      9 N          62.8468   88.4541   11.9124 N.ar    1  UNL1       -0.2905
     10 C          62.0913   88.3580   10.6201 C.ar    1  UNL1        0.0567
     11 C          61.7616   89.4997    9.7047 C.3     1  UNL1        0.0517
     12 N          64.7773   90.5695   14.6597 N.ar    1  UNL1       -0.2064
     13 C          64.1927   91.2759   15.8468 C.ar    1  UNL1        0.2017
     14 N          65.1337   92.3754   16.2417 N.ar    1  UNL1       -0.2004
     15 C          66.2998   92.3484   15.2986 C.ar    1  UNL1        0.2214
     16 N          66.0796   91.2324   14.3209 N.ar    1  UNL1       -0.1408
     17 N          63.7546   85.4826   14.3815 N.pl3   1  UNL1       -0.3266
     18 H          63.1899   85.2300   15.1474 H       1  UNL1        0.1472
     19 C          64.7140   84.4887   13.7970 C.3     1  UNL1        0.1152
     20 C          64.2279   83.4661   12.8131 C.ar    1  UNL1        0.0081
     21 C          64.6989   83.5115   11.3897 C.ar    1  UNL1        0.0005
     22 C          64.2128   82.4889   10.4058 C.ar    1  UNL1        0.0294
     23 C          63.2556   81.4209   10.8454 C.ar    1  UNL1        0.1410
     24 F          62.7695   80.3984    9.8615 F       1  UNL1       -0.2041
     25 C          62.7845   81.3755   12.2687 C.ar    1  UNL1        0.0408
     26 C          63.2707   82.3981   13.2526 C.ar    1  UNL1        0.0575
     27 CL         62.7996   82.3527   14.6760 Cl      1  UNL1       -0.0824
@<TRIPOS>BOND
     1     1     2    1
     2     2     3   ar
     3     3     4   ar
     4     4     5   ar
     5     5    17    1
     6    17    19    1
     7    19    20    1
     8    20    21   ar
     9    21    22   ar
    10    22    23   ar
    11    23    24    1
    12    23    25   ar
    13    25    26   ar
    14    26    27    1
    15     5     6   ar
    16     6     7   ar
    17     7    12    1
    18    12    13   ar
    19    13    14   ar
    20    14    15   ar
    21    15    16   ar
    22     7     8   ar
    23     8     9   ar
    24     9    10   ar
    25    10    11    1
    26    10     2   ar
    27     9     4   ar
    28    26    20   ar
    29    16    12   ar
    30    17    18    1
@<TRIPOS>MOLECULE
*****
 27 30 0 0 0
SMALL
GASTEIGER

@<TRIPOS>ATOM
      1 C          59.0246   89.0923    6.7919 C.3     1  UNL1        0.0534
      2 C          59.8486   88.6576    7.9676 C.ar    1  UNL1        0.0730
      3 N          60.4524   89.5596    9.0029 N.ar    1  UNL1       -0.2299
      4 C          61.1903   88.7039    9.9895 C.ar    1  UNL1        0.1604
      5 C          61.9777   89.0428   11.2204 C.ar    1  UNL1        0.0814
      6 C          62.6174   87.9510   12.0258 C.ar    1  UNL1        0.0381
      7 C          62.4697   86.5203   11.6003 C.ar    1  UNL1        0.1034
      8 C          61.6823   86.1814   10.3693 C.ar    1  UNL1        0.1005
      9 N          61.0426   87.2732    9.5640 N.ar    1  UNL1       -0.2905
     10 C          60.2133   87.2445    8.3144 C.ar    1  UNL1        0.0567
     11 C          59.8182   86.0181    7.5464 C.3     1  UNL1        0.0517
     12 N          63.1094   85.4283   12.4056 N.ar    1  UNL1       -0.2064
     13 C          63.3623   84.0241   11.9431 C.ar    1  UNL1        0.2017
     14 N          64.0176   83.2769   13.0665 N.ar    1  UNL1       -0.2004
     15 C          64.1698   84.2194   14.2235 C.ar    1  UNL1        0.2214
     16 N          63.6085   85.5491   13.8150 N.ar    1  UNL1       -0.1408
     17 N          62.1255   90.4737   11.6459 N.pl3   1  UNL1       -0.3266
     18 H          61.4068   90.9121   12.1563 H       1  UNL1        0.1472
     19 C          63.3681   91.2364   11.2937 C.3     1  UNL1        0.1152
     20 C          64.4231   91.4726   12.3335 C.ar    1  UNL1        0.0081
     21 C          64.4085   90.6840   13.6094 C.ar    1  UNL1        0.0005
     22 C          65.4636   90.9202   14.6492 C.ar    1  UNL1        0.0294
     23 C          66.5332   91.9449   14.4130 C.ar    1  UNL1        0.1410
     24 F          67.5882   92.1811   15.4528 F       1  UNL1       -0.2041
     25 C          66.5479   92.7335   13.1371 C.ar    1  UNL1        0.0408
     26 C          65.4928   92.4973   12.0973 C.ar    1  UNL1        0.0575
     27 CL         65.5074   93.2858   10.8214 Cl      1  UNL1       -0.0824
@<TRIPOS>BOND
     1     1     2    1
     2     2     3   ar
     3     3     4   ar
     4     4     5   ar
     5     5    17    1
     6    17    19    1
     7    19    20    1
     8    20    21   ar
     9    21    22   ar
    10    22    23   ar
    11    23    24    1
    12    23    25   ar
    13    25    26   ar
    14    26    27    1
    15     5     6   ar
    16     6     7   ar
    17     7    12    1
    18    12    13   ar
    19    13    14   ar
    20    14    15   ar
    21    15    16   ar
    22     7     8   ar
    23     8     9   ar
    24     9    10   ar
    25    10    11    1
    26    10     2   ar
    27     9     4   ar
    28    26    20   ar
    29    16    12   ar
    30    17    18    1
@<TRIPOS>MOLECULE
*****
 27 30 0 0 0
SMALL
GASTEIGER

@<TRIPOS>ATOM
      1 C          65.1858   91.1237   14.6229 C.3     1  UNL1        0.0534
      2 C          64.4611   90.0865   13.8171 C.ar    1  UNL1        0.0730
      3 N          64.3278   88.6337   14.1657 N.ar    1  UNL1       -0.2299
      4 C          63.5268   87.9694   13.0853 C.ar    1  UNL1        0.1604
      5 C          63.0801   86.5501   12.8956 C.ar    1  UNL1        0.0814
      6 C          62.2716   86.1731   11.6897 C.ar    1  UNL1        0.0381
      7 C          61.9099   87.2153   10.6735 C.ar    1  UNL1        0.1034
      8 C          62.3566   88.6347   10.8632 C.ar    1  UNL1        0.1005
      9 N          63.1650   89.0117   12.0690 N.ar    1  UNL1       -0.2905
     10 C          63.7425   90.3201   12.5213 C.ar    1  UNL1        0.0567
     11 C          63.6224   91.6319   11.8038 C.3     1  UNL1        0.0517
     12 N          61.1014   86.8383    9.4675 N.ar    1  UNL1       -0.2064
     13 C          61.5171   85.8789    8.3921 C.ar    1  UNL1        0.2017
     14 N          60.4079   85.8022    7.3852 N.ar    1  UNL1       -0.2004
     15 C          59.3065   86.7143    7.8385 C.ar    1  UNL1        0.2214
     16 N          59.7352   87.3546    9.1254 N.ar    1  UNL1       -0.1408
     17 N          63.4419   85.5078   13.9119 N.pl3   1  UNL1       -0.3266
     18 H          63.0344   85.5314   14.8078 H       1  UNL1        0.1472
     19 C          64.4246   84.4295   13.5631 C.3     1  UNL1        0.1152
     20 C          64.0319   83.3347   12.6160 C.ar    1  UNL1        0.0081
     21 C          64.5364   83.3483   11.2033 C.ar    1  UNL1        0.0005
     22 C          64.1437   82.2535   10.2562 C.ar    1  UNL1        0.0294
     23 C          63.2467   81.1450   10.7216 C.ar    1  UNL1        0.1410
     24 F          62.8541   80.0502    9.7744 F       1  UNL1       -0.2041
     25 C          62.7423   81.1313   12.1341 C.ar    1  UNL1        0.0408
     26 C          63.1349   82.2262   13.0814 C.ar    1  UNL1        0.0575
     27 CL         62.6305   82.2126   14.4939 Cl      1  UNL1       -0.0824
@<TRIPOS>BOND
     1     1     2    1
     2     2     3   ar
     3     3     4   ar
     4     4     5   ar
     5     5    17    1
     6    17    19    1
     7    19    20    1
     8    20    21   ar
     9    21    22   ar
    10    22    23   ar
    11    23    24    1
    12    23    25   ar
    13    25    26   ar
    14    26    27    1
    15     5     6   ar
    16     6     7   ar
    17     7    12    1
    18    12    13   ar
    19    13    14   ar
    20    14    15   ar
    21    15    16   ar
    22     7     8   ar
    23     8     9   ar
    24     9    10   ar
    25    10    11    1
    26    10     2   ar
    27     9     4   ar
    28    26    20   ar
    29    16    12   ar
    30    17    18    1
@<TRIPOS>MOLECULE
*****
 27 30 0 0 0
SMALL
GASTEIGER

@<TRIPOS>ATOM
      1 C          63.5352   90.2449   16.7512 C.3     1  UNL1        0.0534
      2 C          63.8778   90.7565   15.3834 C.ar    1  UNL1        0.0730
      3 N          63.1319   90.4560   14.1172 N.ar    1  UNL1       -0.2299
      4 C          63.8197   91.1723   12.9929 C.ar    1  UNL1        0.1604
      5 C          63.5309   91.2437   11.5227 C.ar    1  UNL1        0.0814
      6 C          64.4131   92.0584   10.6238 C.ar    1  UNL1        0.0381
      7 C          65.5840   92.8016   11.1951 C.ar    1  UNL1        0.1034
      8 C          65.8728   92.7301   12.6653 C.ar    1  UNL1        0.1005
      9 N          64.9906   91.9155   13.5642 N.ar    1  UNL1       -0.2905
     10 C          65.0266   91.6585   15.0416 C.ar    1  UNL1        0.0567
     11 C          66.0344   92.2073   16.0076 C.3     1  UNL1        0.0517
     12 N          66.4663   93.6163   10.2962 N.ar    1  UNL1       -0.2064
     13 C          67.7078   93.1340    9.6064 C.ar    1  UNL1        0.2017
     14 N          68.2707   94.2760    8.8132 N.ar    1  UNL1       -0.2004
     15 C          67.3770   95.4641    9.0128 C.ar    1  UNL1        0.2214
     16 N          66.2618   95.0563    9.9294 N.ar    1  UNL1       -0.1408
     17 N          62.3598   90.5005   10.9514 N.pl3   1  UNL1       -0.3266
     18 H          61.5537   90.9918   10.6720 H       1  UNL1        0.1472
     19 C          62.4171   89.0086   10.8057 C.3     1  UNL1        0.1152
     20 C          61.4848   88.3111    9.8601 C.ar    1  UNL1        0.0081
     21 C          60.5670   89.1118    8.9846 C.ar    1  UNL1        0.0005
     22 C          59.6347   88.4143    8.0390 C.ar    1  UNL1        0.0294
     23 C          59.6201   86.9160    7.9689 C.ar    1  UNL1        0.1410
     24 F          58.6878   86.2184    7.0234 F       1  UNL1       -0.2041
     25 C          60.5378   86.1152    8.8444 C.ar    1  UNL1        0.0408
     26 C          61.4702   86.8128    9.7901 C.ar    1  UNL1        0.0575
     27 CL         62.3879   86.0121   10.6656 Cl      1  UNL1       -0.0824
@<TRIPOS>BOND
     1     1     2    1
     2     2     3   ar
     3     3     4   ar
     4     4     5   ar
     5     5    17    1
     6    17    19    1
     7    19    20    1
     8    20    21   ar
     9    21    22   ar
    10    22    23   ar
    11    23    24    1
    12    23    25   ar
    13    25    26   ar
    14    26    27    1
    15     5     6   ar
    16     6     7   ar
    17     7    12    1
    18    12    13   ar
    19    13    14   ar
    20    14    15   ar
    21    15    16   ar
    22     7     8   ar
    23     8     9   ar
    24     9    10   ar
    25    10    11    1
    26    10     2   ar
    27     9     4   ar
    28    26    20   ar
    29    16    12   ar
    30    17    18    1
@<TRIPOS>MOLECULE
*****
 27 30 0 0 0
SMALL
GASTEIGER

@<TRIPOS>ATOM
      1 C          64.3694   83.2064   14.6554 C.3     1  UNL1        0.0534
      2 C          63.7665   84.2426   13.7537 C.ar    1  UNL1        0.0730
      3 N          63.9348   85.7277   13.8811 N.ar    1  UNL1       -0.2299
      4 C          63.1619   86.3785   12.7725 C.ar    1  UNL1        0.1604
      5 C          62.9628   87.8173   12.3979 C.ar    1  UNL1        0.0814
      6 C          62.1178   88.1733   11.2109 C.ar    1  UNL1        0.0381
      7 C          61.4718   87.0905   10.3984 C.ar    1  UNL1        0.1034
      8 C          61.6708   85.6517   10.7729 C.ar    1  UNL1        0.1005
      9 N          62.5159   85.2957   11.9600 N.ar    1  UNL1       -0.2905
     10 C          62.8896   83.9757   12.5664 C.ar    1  UNL1        0.0567
     11 C          62.4614   82.6257   12.0723 C.3     1  UNL1        0.0517
     12 N          60.6267   87.4464    9.2112 N.ar    1  UNL1       -0.2064
     13 C          59.9130   86.4783    8.3150 C.ar    1  UNL1        0.2017
     14 N          59.1922   87.2666    7.2618 N.ar    1  UNL1       -0.2004
     15 C          59.4604   88.7219    7.5072 C.ar    1  UNL1        0.2214
     16 N          60.3470   88.8330    8.7120 N.ar    1  UNL1       -0.1408
     17 N          63.6089   88.9001   13.2105 N.pl3   1  UNL1       -0.3266
     18 H          63.9580   88.6996   14.1089 H       1  UNL1        0.1472
     19 C          63.7230   90.2885   12.6542 C.3     1  UNL1        0.1152
     20 C          64.6847   91.2644   13.2646 C.ar    1  UNL1        0.0081
     21 C          65.0222   91.1721   14.7233 C.ar    1  UNL1        0.0005
     22 C          65.9839   92.1480   15.3338 C.ar    1  UNL1        0.0294
     23 C          66.6080   93.2162   14.4857 C.ar    1  UNL1        0.1410
     24 F          67.5697   94.1922   15.0962 F       1  UNL1       -0.2041
     25 C          66.2705   93.3086   13.0271 C.ar    1  UNL1        0.0408
     26 C          65.3088   92.3326   12.4165 C.ar    1  UNL1        0.0575
     27 CL         64.9713   92.4250   10.9580 Cl      1  UNL1       -0.0824
@<TRIPOS>BOND
     1     1     2    1
     2     2     3   ar
     3     3     4   ar
     4     4     5   ar
     5     5    17    1
     6    17    19    1
     7    19    20    1
     8    20    21   ar
     9    21    22   ar
    10    22    23   ar
    11    23    24    1
    12    23    25   ar
    13    25    26   ar
    14    26    27    1
    15     5     6   ar
    16     6     7   ar
    17     7    12    1
    18    12    13   ar
    19    13    14   ar
    20    14    15   ar
    21    15    16   ar
    22     7     8   ar
    23     8     9   ar
    24     9    10   ar
    25    10    11    1
    26    10     2   ar
    27     9     4   ar
    28    26    20   ar
    29    16    12   ar
    30    17    18    1
@<TRIPOS>MOLECULE
*****
 27 30 0 0 0
SMALL
GASTEIGER

@<TRIPOS>ATOM
      1 C          63.4976   90.1779   16.7751 C.3     1  UNL1        0.0534
      2 C          63.8255   90.6817   15.4007 C.ar    1  UNL1        0.0730
      3 N          63.0447   90.4043   14.1504 N.ar    1  UNL1       -0.2299
      4 C          63.7284   91.1027   13.0124 C.ar    1  UNL1        0.1604
      5 C          63.4107   91.1845   11.5488 C.ar    1  UNL1        0.0814
      6 C          64.2963   91.9754   10.6321 C.ar    1  UNL1        0.0381
      7 C          65.4996   92.6844   11.1792 C.ar    1  UNL1        0.1034
      8 C          65.8173   92.6025   12.6429 C.ar    1  UNL1        0.1005
      9 N          64.9317   91.8117   13.5595 N.ar    1  UNL1       -0.2905
     10 C          64.9917   91.5516   15.0355 C.ar    1  UNL1        0.0567
     11 C          66.0348   92.0702   15.9805 C.3     1  UNL1        0.0517
     12 N          66.3852   93.4753   10.2626 N.ar    1  UNL1       -0.2064
     13 C          67.6207   92.9706    9.5779 C.ar    1  UNL1        0.2017
     14 N          68.1899   94.0931    8.7619 N.ar    1  UNL1       -0.2004
     15 C          67.3062   95.2917    8.9423 C.ar    1  UNL1        0.2214
     16 N          66.1909   94.9099    9.8698 N.ar    1  UNL1       -0.1408
     17 N          62.2073   90.4754   11.0017 N.pl3   1  UNL1       -0.3266
     18 H          61.3034   90.7785   11.2473 H       1  UNL1        0.1472
     19 C          62.3812   89.3045   10.0804 C.3     1  UNL1        0.1152
     20 C          62.3648   87.9089   10.6299 C.ar    1  UNL1        0.0081
     21 C          63.0298   87.6113   11.9412 C.ar    1  UNL1        0.0005
     22 C          63.0134   86.2157   12.4907 C.ar    1  UNL1        0.0294
     23 C          62.3320   85.1177   11.7290 C.ar    1  UNL1        0.1410
     24 F          62.3156   83.7221   12.2785 F       1  UNL1       -0.2041
     25 C          61.6671   85.4153   10.4179 C.ar    1  UNL1        0.0408
     26 C          61.6835   86.8109    9.8683 C.ar    1  UNL1        0.0575
     27 CL         61.0185   87.1085    8.5571 Cl      1  UNL1       -0.0824
@<TRIPOS>BOND
     1     1     2    1
     2     2     3   ar
     3     3     4   ar
     4     4     5   ar
     5     5    17    1
     6    17    19    1
     7    19    20    1
     8    20    21   ar
     9    21    22   ar
    10    22    23   ar
    11    23    24    1
    12    23    25   ar
    13    25    26   ar
    14    26    27    1
    15     5     6   ar
    16     6     7   ar
    17     7    12    1
    18    12    13   ar
    19    13    14   ar
    20    14    15   ar
    21    15    16   ar
    22     7     8   ar
    23     8     9   ar
    24     9    10   ar
    25    10    11    1
    26    10     2   ar
    27     9     4   ar
    28    26    20   ar
    29    16    12   ar
    30    17    18    1
@<TRIPOS>MOLECULE
*****
 27 30 0 0 0
SMALL
GASTEIGER

@<TRIPOS>ATOM
      1 C          65.5924   94.1978   10.7913 C.3     1  UNL1        0.0534
      2 C          65.0825   92.9018   11.3487 C.ar    1  UNL1        0.0730
      3 N          64.1443   91.9547   10.6612 N.ar    1  UNL1       -0.2299
      4 C          63.9033   90.7930   11.5791 C.ar    1  UNL1        0.1604
      5 C          63.0672   89.5561   11.4344 C.ar    1  UNL1        0.0814
      6 C          63.0202   88.5485   12.5446 C.ar    1  UNL1        0.0381
      7 C          63.8093   88.7778   13.7994 C.ar    1  UNL1        0.1034
      8 C          64.6455   90.0147   13.9441 C.ar    1  UNL1        0.1005
      9 N          64.6925   91.0223   12.8340 N.ar    1  UNL1       -0.2905
     10 C          65.4212   92.3256   12.6916 C.ar    1  UNL1        0.0567
     11 C          66.3293   92.9441   13.7127 C.3     1  UNL1        0.0517
     12 N          63.7624   87.7701   14.9096 N.ar    1  UNL1       -0.2064
     13 C          64.3411   86.3868   14.8699 C.ar    1  UNL1        0.2017
     14 N          64.0648   85.7307   16.1902 N.ar    1  UNL1       -0.2004
     15 C          63.3153   86.7085   17.0459 C.ar    1  UNL1        0.2214
     16 N          63.1284   87.9689   16.2545 N.ar    1  UNL1       -0.1408
     17 N          62.2780   89.3269   10.1795 N.pl3   1  UNL1       -0.3266
     18 H          62.4382   89.8894    9.3876 H       1  UNL1        0.1472
     19 C          61.2447   88.2406   10.1313 C.3     1  UNL1        0.1152
     20 C          61.3508   87.1495    9.1074 C.ar    1  UNL1        0.0081
     21 C          62.5958   86.3169    9.0248 C.ar    1  UNL1        0.0005
     22 C          62.7018   85.2259    8.0009 C.ar    1  UNL1        0.0294
     23 C          61.5629   84.9675    7.0595 C.ar    1  UNL1        0.1410
     24 F          61.6690   83.8765    6.0356 F       1  UNL1       -0.2041
     25 C          60.3180   85.8000    7.1421 C.ar    1  UNL1        0.0408
     26 C          60.2119   86.8911    8.1661 C.ar    1  UNL1        0.0575
     27 CL         58.9669   87.7237    8.2486 Cl      1  UNL1       -0.0824
@<TRIPOS>BOND
     1     1     2    1
     2     2     3   ar
     3     3     4   ar
     4     4     5   ar
     5     5    17    1
     6    17    19    1
     7    19    20    1
     8    20    21   ar
     9    21    22   ar
    10    22    23   ar
    11    23    24    1
    12    23    25   ar
    13    25    26   ar
    14    26    27    1
    15     5     6   ar
    16     6     7   ar
    17     7    12    1
    18    12    13   ar
    19    13    14   ar
    20    14    15   ar
    21    15    16   ar
    22     7     8   ar
    23     8     9   ar
    24     9    10   ar
    25    10    11    1
    26    10     2   ar
    27     9     4   ar
    28    26    20   ar
    29    16    12   ar
    30    17    18    1
@<TRIPOS>MOLECULE
*****
 27 30 0 0 0
SMALL
GASTEIGER

@<TRIPOS>ATOM
      1 C          64.9445   85.2511   15.1206 C.3     1  UNL1        0.0534
      2 C          64.1577   86.0037   14.0887 C.ar    1  UNL1        0.0730
      3 N          64.0067   87.4939   14.0090 N.ar    1  UNL1       -0.2299
      4 C          63.1394   87.8093   12.8264 C.ar    1  UNL1        0.1604
      5 C          62.6505   89.1087   12.2584 C.ar    1  UNL1        0.0814
      6 C          61.7767   89.1128   11.0393 C.ar    1  UNL1        0.0381
      7 C          61.3917   87.8175   10.3882 C.ar    1  UNL1        0.1034
      8 C          61.8806   86.5181   10.9562 C.ar    1  UNL1        0.1005
      9 N          62.7544   86.5140   12.1753 N.ar    1  UNL1       -0.2905
     10 C          63.3837   85.3981   12.9554 C.ar    1  UNL1        0.0567
     11 C          63.2607   83.9337   12.6550 C.3     1  UNL1        0.0517
     12 N          60.5178   87.8215    9.1690 N.ar    1  UNL1       -0.2064
     13 C          59.9438   86.6125    8.4916 C.ar    1  UNL1        0.2017
     14 N          59.1357   87.0791    7.3172 N.ar    1  UNL1       -0.2004
     15 C          59.2104   88.5765    7.2686 C.ar    1  UNL1        0.2214
     16 N          60.0645   89.0353    8.4131 N.ar    1  UNL1       -0.1408
     17 N          63.0356   90.4040   12.9096 N.pl3   1  UNL1       -0.3266
     18 H          62.3405   91.0543   13.1610 H       1  UNL1        0.1472
     19 C          64.4797   90.7085   13.1776 C.3     1  UNL1        0.1152
     20 C          65.1018   91.9507   12.6118 C.ar    1  UNL1        0.0081
     21 C          64.9270   92.2824   11.1594 C.ar    1  UNL1        0.0005
     22 C          65.5490   93.5245   10.5937 C.ar    1  UNL1        0.0294
     23 C          66.3460   94.4350   11.4803 C.ar    1  UNL1        0.1410
     24 F          66.9680   95.6771   10.9145 F       1  UNL1       -0.2041
     25 C          66.5208   94.1033   12.9326 C.ar    1  UNL1        0.0408
     26 C          65.8987   92.8611   13.4984 C.ar    1  UNL1        0.0575
     27 CL         66.0735   92.5294   14.9508 Cl      1  UNL1       -0.0824
@<TRIPOS>BOND
     1     1     2    1
     2     2     3   ar
     3     3     4   ar
     4     4     5   ar
     5     5    17    1
     6    17    19    1
     7    19    20    1
     8    20    21   ar
     9    21    22   ar
    10    22    23   ar
    11    23    24    1
    12    23    25   ar
    13    25    26   ar
    14    26    27    1
    15     5     6   ar
    16     6     7   ar
    17     7    12    1
    18    12    13   ar
    19    13    14   ar
    20    14    15   ar
    21    15    16   ar
    22     7     8   ar
    23     8     9   ar
    24     9    10   ar
    25    10    11    1
    26    10     2   ar
    27     9     4   ar
    28    26    20   ar
    29    16    12   ar
    30    17    18    1
