@<TRIPOS>MOLECULE
*****
 12 13 0 0 0
SMALL
GASTEIGER

@<TRIPOS>ATOM
      1 C          68.1012   92.0403    9.6929 C.3     1  UNL1        0.4043
      2 N          67.4611   93.3940    9.7794 N.2     1  UNL1       -0.1572
      3 C          67.9618   94.6492    9.1284 C.2     1  UNL1        0.3960
      4 N          67.0179   95.7613    9.4787 N.2     1  UNL1       -0.1748
      5 C          65.9340   95.1933   10.3461 C.2     1  UNL1        0.1599
      6 C          66.2078   93.7303   10.5319 C.3     1  UNL1        0.3145
      7 C          65.3747   92.7717   11.3301 C.ar    1  UNL1        0.0730
      8 C          64.3296   91.9390   10.6488 C.ar    1  UNL1        0.0058
      9 C          63.4965   90.9805   11.4470 C.ar    1  UNL1        0.0206
     10 C          63.7085   90.8548   12.9266 C.ar    1  UNL1        0.0989
     11 N          64.7535   91.6876   13.6080 N.ar    1  UNL1       -0.2424
     12 C          65.5866   92.6460   12.8098 C.ar    1  UNL1        0.1015
@<TRIPOS>UNITY_ATOM_ATTR
2 1
charge 1
@<TRIPOS>BOND
     1     1     2    1
     2     2     3    2
     3     3     4    1
     4     4     5    2
     5     5     6    1
     6     6     7    1
     7     7     8   ar
     8     8     9   ar
     9     9    10   ar
    10    10    11   ar
    11    11    12   ar
    12     6     2    1
    13    12     7   ar
@<TRIPOS>MOLECULE
*****
 12 13 0 0 0
SMALL
GASTEIGER

@<TRIPOS>ATOM
      1 C          67.8055   92.3348   14.2667 C.3     1  UNL1        0.4043
      2 N          66.4162   92.0078   13.8053 N.2     1  UNL1       -0.1572
      3 C          65.3731   91.2772   14.5979 C.2     1  UNL1        0.3960
      4 N          64.1382   91.1717   13.7528 N.2     1  UNL1       -0.1748
      5 C          64.4182   91.8372   12.4380 C.2     1  UNL1        0.1599
      6 C          65.8261   92.3539   12.4705 C.3     1  UNL1        0.3145
      7 C          66.5216   93.0879   11.3625 C.ar    1  UNL1        0.0730
      8 C          67.4049   92.3415   10.4072 C.ar    1  UNL1        0.0058
      9 C          68.1005   93.0755    9.2993 C.ar    1  UNL1        0.0206
     10 C          67.9127   94.5558    9.1467 C.ar    1  UNL1        0.0989
     11 N          67.0294   95.3022   10.1020 N.ar    1  UNL1       -0.2424
     12 C          66.3339   94.5682   11.2099 C.ar    1  UNL1        0.1015
@<TRIPOS>UNITY_ATOM_ATTR
2 1
charge 1
@<TRIPOS>BOND
     1     1     2    1
     2     2     3    2
     3     3     4    1
     4     4     5    2
     5     5     6    1
     6     6     7    1
     7     7     8   ar
     8     8     9   ar
     9     9    10   ar
    10    10    11   ar
    11    11    12   ar
    12     6     2    1
    13    12     7   ar
@<TRIPOS>MOLECULE
*****
 12 13 0 0 0
SMALL
GASTEIGER

@<TRIPOS>ATOM
      1 C          63.6174   91.4160   10.5605 C.3     1  UNL1        0.4043
      2 N          64.2598   91.6060   11.9025 N.2     1  UNL1       -0.1572
      3 C          63.7628   91.0510   13.2044 C.2     1  UNL1        0.3960
      4 N          64.7079   91.4864   14.2849 N.2     1  UNL1       -0.1748
      5 C          65.7889   92.3104   13.6507 C.2     1  UNL1        0.1599
      6 C          65.5120   92.3844   12.1783 C.3     1  UNL1        0.3145
      7 C          66.3417   93.1094   11.1605 C.ar    1  UNL1        0.0730
      8 C          67.3395   92.3560   10.3318 C.ar    1  UNL1        0.0058
      9 C          68.1692   93.0811    9.3141 C.ar    1  UNL1        0.0206
     10 C          68.0010   94.5596    9.1249 C.ar    1  UNL1        0.0989
     11 N          67.0032   95.3130    9.9535 N.ar    1  UNL1       -0.2424
     12 C          66.1736   94.5879   10.9713 C.ar    1  UNL1        0.1015
@<TRIPOS>UNITY_ATOM_ATTR
2 1
charge 1
@<TRIPOS>BOND
     1     1     2    1
     2     2     3    2
     3     3     4    1
     4     4     5    2
     5     5     6    1
     6     6     7    1
     7     7     8   ar
     8     8     9   ar
     9     9    10   ar
    10    10    11   ar
    11    11    12   ar
    12     6     2    1
    13    12     7   ar
@<TRIPOS>MOLECULE
*****
 12 13 0 0 0
SMALL
GASTEIGER

@<TRIPOS>ATOM
      1 C          62.8596   89.4931   12.1642 C.3     1  UNL1        0.4043
      2 N          63.8118   90.3325   12.9633 N.2     1  UNL1       -0.1572
      3 C          64.4235   91.6305   12.5260 C.2     1  UNL1        0.3960
      4 N          65.3093   92.1215   13.6325 N.2     1  UNL1       -0.1748
      5 C          65.2451   91.1271   14.7536 C.2     1  UNL1        0.1599
      6 C          64.3196   90.0214   14.3400 C.3     1  UNL1        0.3145
      7 C          63.9643   88.8162   15.1594 C.ar    1  UNL1        0.0730
      8 C          63.2321   88.9814   16.4580 C.ar    1  UNL1        0.0058
      9 C          62.8768   87.7762   17.2773 C.ar    1  UNL1        0.0206
     10 C          63.2538   86.4058   16.7979 C.ar    1  UNL1        0.0989
     11 N          63.9860   86.2405   15.4993 N.ar    1  UNL1       -0.2424
     12 C          64.3413   87.4457   14.6800 C.ar    1  UNL1        0.1015
@<TRIPOS>UNITY_ATOM_ATTR
2 1
charge 1
@<TRIPOS>BOND
     1     1     2    1
     2     2     3    2
     3     3     4    1
     4     4     5    2
     5     5     6    1
     6     6     7    1
     7     7     8   ar
     8     8     9   ar
     9     9    10   ar
    10    10    11   ar
    11    11    12   ar
    12     6     2    1
    13    12     7   ar
@<TRIPOS>MOLECULE
*****
 12 13 0 0 0
SMALL
GASTEIGER

@<TRIPOS>ATOM
      1 C          64.0482   85.6390   14.1321 C.3     1  UNL1        0.4043
      2 N          63.4993   84.2553   13.9478 N.2     1  UNL1       -0.1572
      3 C          63.4694   83.1732   14.9862 C.2     1  UNL1        0.3960
      4 N          62.8356   81.9598   14.3730 N.2     1  UNL1       -0.1748
      5 C          62.4738   82.2920   12.9557 C.2     1  UNL1        0.1599
      6 C          62.8840   83.7107   12.6929 C.3     1  UNL1        0.3145
      7 C          62.7095   84.4543   11.4019 C.ar    1  UNL1        0.0730
      8 C          63.4537   84.0139   10.1763 C.ar    1  UNL1        0.0058
      9 C          63.2792   84.7575    8.8853 C.ar    1  UNL1        0.0206
     10 C          62.3604   85.9414    8.8200 C.ar    1  UNL1        0.0989
     11 N          61.6162   86.3817   10.0456 N.ar    1  UNL1       -0.2424
     12 C          61.7907   85.6382   11.3365 C.ar    1  UNL1        0.1015
@<TRIPOS>UNITY_ATOM_ATTR
2 1
charge 1
@<TRIPOS>BOND
     1     1     2    1
     2     2     3    2
     3     3     4    1
     4     4     5    2
     5     5     6    1
     6     6     7    1
     7     7     8   ar
     8     8     9   ar
     9     9    10   ar
    10    10    11   ar
    11    11    12   ar
    12     6     2    1
    13    12     7   ar
@<TRIPOS>MOLECULE
*****
 12 13 0 0 0
SMALL
GASTEIGER

@<TRIPOS>ATOM
      1 C          63.7888   91.5090   11.5232 C.3     1  UNL1        0.4043
      2 N          65.0808   91.9092   12.1716 N.2     1  UNL1       -0.1572
      3 C          66.1718   92.7198   11.5370 C.2     1  UNL1        0.3960
      4 N          67.2740   92.8807   12.5416 N.2     1  UNL1       -0.1748
      5 C          66.8642   92.1696   13.7971 C.2     1  UNL1        0.1599
      6 C          65.5088   91.5692   13.5685 C.3     1  UNL1        0.3145
      7 C          64.7198   90.7691   14.5622 C.ar    1  UNL1        0.0730
      8 C          64.5537   89.2906   14.3721 C.ar    1  UNL1        0.0058
      9 C          63.7647   88.4906   15.3659 C.ar    1  UNL1        0.0206
     10 C          63.1419   89.1693   16.5497 C.ar    1  UNL1        0.0989
     11 N          63.3080   90.6478   16.7399 N.ar    1  UNL1       -0.2424
     12 C          64.0969   91.4478   15.7461 C.ar    1  UNL1        0.1015
@<TRIPOS>UNITY_ATOM_ATTR
2 1
charge 1
@<TRIPOS>BOND
     1     1     2    1
     2     2     3    2
     3     3     4    1
     4     4     5    2
     5     5     6    1
     6     6     7    1
     7     7     8   ar
     8     8     9   ar
     9     9    10   ar
    10    10    11   ar
    11    11    12   ar
    12     6     2    1
    13    12     7   ar
@<TRIPOS>MOLECULE
*****
 12 13 0 0 0
SMALL
GASTEIGER

@<TRIPOS>ATOM
      1 C          62.1497   85.5773   11.1450 C.3     1  UNL1        0.4043
      2 N          63.1112   84.4411   11.3303 N.2     1  UNL1       -0.1572
      3 C          63.6277   83.5379   10.2497 C.2     1  UNL1        0.3960
      4 N          64.5608   82.5471   10.8803 N.2     1  UNL1       -0.1748
      5 C          64.6210   82.8379   12.3506 C.2     1  UNL1        0.1599
      6 C          63.7251   84.0084   12.6287 C.3     1  UNL1        0.3145
      7 C          63.4853   84.6361   13.9699 C.ar    1  UNL1        0.0730
      8 C          64.3734   85.7463   14.4480 C.ar    1  UNL1        0.0058
      9 C          64.1336   86.3739   15.7890 C.ar    1  UNL1        0.0206
     10 C          63.0056   85.8913   16.6520 C.ar    1  UNL1        0.0989
     11 N          62.1175   84.7811   16.1739 N.ar    1  UNL1       -0.2424
     12 C          62.3573   84.1535   14.8329 C.ar    1  UNL1        0.1015
@<TRIPOS>UNITY_ATOM_ATTR
2 1
charge 1
@<TRIPOS>BOND
     1     1     2    1
     2     2     3    2
     3     3     4    1
     4     4     5    2
     5     5     6    1
     6     6     7    1
     7     7     8   ar
     8     8     9   ar
     9     9    10   ar
    10    10    11   ar
    11    11    12   ar
    12     6     2    1
    13    12     7   ar
@<TRIPOS>MOLECULE
*****
 12 13 0 0 0
SMALL
GASTEIGER

@<TRIPOS>ATOM
      1 C          62.3757   88.8623   10.6854 C.3     1  UNL1        0.4043
      2 N          61.4197   88.2508    9.7046 N.2     1  UNL1       -0.1572
      3 C          60.4116   88.9916    8.8771 C.2     1  UNL1        0.3960
      4 N          59.6728   87.9898    8.0400 N.2     1  UNL1       -0.1748
      5 C          60.2244   86.6298    8.3502 C.2     1  UNL1        0.1599
      6 C          61.3040   86.7911    9.3790 C.3     1  UNL1        0.3145
      7 C          62.1241   85.6866    9.9771 C.ar    1  UNL1        0.0730
      8 C          63.0297   84.8683    9.1053 C.ar    1  UNL1        0.0058
      9 C          63.8497   83.7639    9.7035 C.ar    1  UNL1        0.0206
     10 C          63.7640   83.4777   11.1734 C.ar    1  UNL1        0.0989
     11 N          62.8583   84.2960   12.0452 N.ar    1  UNL1       -0.2424
     12 C          62.0384   85.4005   11.4471 C.ar    1  UNL1        0.1015
@<TRIPOS>UNITY_ATOM_ATTR
2 1
charge 1
@<TRIPOS>BOND
     1     1     2    1
     2     2     3    2
     3     3     4    1
     4     4     5    2
     5     5     6    1
     6     6     7    1
     7     7     8   ar
     8     8     9   ar
     9     9    10   ar
    10    10    11   ar
    11    11    12   ar
    12     6     2    1
    13    12     7   ar
@<TRIPOS>MOLECULE
*****
 12 13 0 0 0
SMALL
GASTEIGER

@<TRIPOS>ATOM
      1 C          59.7826   86.2656    7.7578 C.3     1  UNL1        0.4043
      2 N          60.3960   87.3829    8.5485 N.2     1  UNL1       -0.1572
      3 C          60.0094   88.8303    8.4756 C.2     1  UNL1        0.3960
      4 N          60.8782   89.5910    9.4330 N.2     1  UNL1       -0.1748
      5 C          61.8017   88.6137   10.0977 C.2     1  UNL1        0.1599
      6 C          61.5037   87.2489    9.5510 C.3     1  UNL1        0.3145
      7 C          62.1926   85.9741    9.9388 C.ar    1  UNL1        0.0730
      8 C          62.0589   85.4443   11.3357 C.ar    1  UNL1        0.0058
      9 C          62.7477   84.1695   11.7235 C.ar    1  UNL1        0.0206
     10 C          63.5703   83.4245   10.7143 C.ar    1  UNL1        0.0989
     11 N          63.7040   83.9543    9.3174 N.ar    1  UNL1       -0.2424
     12 C          63.0151   85.2291    8.9297 C.ar    1  UNL1        0.1015
@<TRIPOS>UNITY_ATOM_ATTR
2 1
charge 1
@<TRIPOS>BOND
     1     1     2    1
     2     2     3    2
     3     3     4    1
     4     4     5    2
     5     5     6    1
     6     6     7    1
     7     7     8   ar
     8     8     9   ar
     9     9    10   ar
    10    10    11   ar
    11    11    12   ar
    12     6     2    1
    13    12     7   ar
