@<TRIPOS>MOLECULE
*****
 36 41 0 0 0
SMALL
GASTEIGER

@<TRIPOS>ATOM
      1 C          63.7176   84.4845   13.8428 C.2     1  UNL1        0.1558
      2 N          64.4978   84.9725   15.0274 N.2     1  UNL1       -0.2402
      3 C          64.5572   86.4697   14.9583 C.2     1  UNL1        0.0929
      4 C          63.8137   86.9070   13.7311 C.2     1  UNL1        0.0093
      5 C          63.2948   85.6801   13.0417 C.3     1  UNL1        0.1374
      6 N          62.5043   85.8101   11.7736 N.pl3   1  UNL1       -0.3285
      7 C          62.2328   87.1670   11.1947 C.2     1  UNL1        0.0378
      8 C          62.7518   88.3940   11.8841 C.2     1  UNL1        0.0350
      9 C          62.4803   89.7509   11.3054 C.2     1  UNL1        0.1866
     10 O          62.9992   90.9779   11.9948 O.2     1  UNL1       -0.2901
     11 C          61.6898   89.8809   10.0373 C.3     1  UNL1        0.1388
     12 N          61.1709   88.6539    9.3479 N.3     1  UNL1       -0.2862
     13 C          61.4423   87.2970    9.9266 C.3     1  UNL1        0.1103
     14 C          63.5423   88.2640   13.1524 C.3     1  UNL1        0.1050
     15 H          62.1637   85.0048   11.3211 H       1  UNL1        0.1471
     16 H          61.5639   88.6566    8.4066 H       1  UNL1        0.1240
     17 C          64.0612   89.4909   13.8418 C.ar    1  UNL1        0.1312
     18 C          63.5808   90.0343   15.1547 C.ar    1  UNL1        0.0373
     19 C          64.3744   91.2691   15.4637 C.ar    1  UNL1        0.0472
     20 C          65.3453   91.4889   14.3416 C.ar    1  UNL1        0.1774
     21 O          65.1517   90.3899   13.3392 O.2     1  UNL1       -0.4506
     22 S          66.3358   92.6107   14.2398 S.3     1  UNL1       -0.0117
     23 C          66.5096   93.3423   12.9419 C.2     1  UNL1        0.1967
     24 N          66.1253   94.7673   12.6748 N.2     1  UNL1       -0.2197
     25 C          66.4764   95.0831   11.2510 C.2     1  UNL1        0.0973
     26 C          66.3262   96.3317   10.4333 C.2     1  UNL1        0.0201
     27 C          66.7775   96.3501    9.0029 C.2     1  UNL1       -0.0026
     28 C          67.3788   95.1202    8.3902 C.2     1  UNL1       -0.0197
     29 C          67.5289   93.8716    9.2078 C.3     1  UNL1        0.0734
     30 C          67.0778   93.8531   10.6382 C.2     1  UNL1        0.0831
     31 N          67.0983   92.7772   11.6833 N.2     1  UNL1       -0.2234
     32 C          63.4134   83.0523   13.5167 C.2     1  UNL1        0.3569
     33 O          63.7639   81.9698   14.4941 O.2     1  UNL1       -0.2435
     34 O          62.7589   82.7026   12.2131 O.3     1  UNL1       -0.4446
     35 C          64.2705   83.1197   10.1416 C.3     1  UNL1        0.0513
     36 C          63.5835   82.1709   11.0785 C.3     1  UNL1        0.2089
@<TRIPOS>BOND
     1    35    36    1
     2    36    34    1
     3    34    32    1
     4    32    33    2
     5    32     1    1
     6     1     2    2
     7     2     3    1
     8     3     4    2
     9     4     5    1
    10     5     6    1
    11     6     7    1
    12     7     8    2
    13     8     9    1
    14     9    10    2
    15     9    11    1
    16    11    12    1
    17    12    13    1
    18     8    14    1
    19    14    17    1
    20    17    18   ar
    21    18    19   ar
    22    19    20   ar
    23    20    22    1
    24    22    23    1
    25    23    24    2
    26    24    25    1
    27    25    26    2
    28    26    27    1
    29    27    28    2
    30    28    29    1
    31    29    30    1
    32    30    31    2
    33    20    21   ar
    34     5     1    1
    35    13     7    1
    36    21    17   ar
    37    14     4    1
    38    31    23    1
    39    30    25    1
    40     6    15    1
    41    12    16    1
@<TRIPOS>MOLECULE
*****
 36 41 0 0 0
SMALL
GASTEIGER

@<TRIPOS>ATOM
      1 C          66.1013   93.5045   12.1751 C.2     1  UNL1        0.1558
      2 N          66.6248   93.1782   13.5423 N.2     1  UNL1       -0.2402
      3 C          65.9054   91.9577   14.0350 C.2     1  UNL1        0.0929
      4 C          64.9372   91.5297   12.9722 C.2     1  UNL1        0.0093
      5 C          65.0583   92.4857   11.8227 C.3     1  UNL1        0.1374
      6 N          64.2031   92.3050   10.6037 N.pl3   1  UNL1       -0.3285
      7 C          63.2268   91.1683   10.5341 C.2     1  UNL1        0.0378
      8 C          63.1058   90.2122   11.6837 C.2     1  UNL1        0.0350
      9 C          62.1296   89.0755   11.6141 C.2     1  UNL1        0.1866
     10 O          62.0085   88.1195   12.7636 O.2     1  UNL1       -0.2901
     11 C          61.2744   88.8949   10.3951 C.3     1  UNL1        0.1388
     12 N          61.3955   89.8509    9.2456 N.3     1  UNL1       -0.2862
     13 C          62.3717   90.9876    9.3151 C.3     1  UNL1        0.1103
     14 C          63.9610   90.3930   12.9027 C.3     1  UNL1        0.1050
     15 H          64.2826   92.9325    9.8493 H       1  UNL1        0.1471
     16 H          60.4729   90.2632    9.1071 H       1  UNL1        0.1240
     17 C          63.8399   89.4370   14.0522 C.ar    1  UNL1        0.1312
     18 C          63.3113   89.7624   15.4178 C.ar    1  UNL1        0.0373
     19 C          63.3709   88.5142   16.2475 C.ar    1  UNL1        0.0472
     20 C          63.9363   87.4173   15.3948 C.ar    1  UNL1        0.1774
     21 O          64.2261   87.9876   14.0381 O.2     1  UNL1       -0.4506
     22 S          64.1706   85.9991   15.8235 S.3     1  UNL1       -0.0117
     23 C          63.8803   84.8719   14.8776 C.2     1  UNL1        0.1967
     24 N          64.0248   84.9139   13.3852 N.2     1  UNL1       -0.2197
     25 C          63.6282   83.5727   12.8430 C.2     1  UNL1        0.0973
     26 C          63.5716   83.0319   11.4450 C.2     1  UNL1        0.0201
     27 C          63.1253   81.6202   11.2045 C.2     1  UNL1       -0.0026
     28 C          62.7356   80.7493   12.3619 C.2     1  UNL1       -0.0197
     29 C          62.7922   81.2900   13.7599 C.3     1  UNL1        0.0734
     30 C          63.2385   82.7017   14.0004 C.2     1  UNL1        0.0831
     31 N          63.3943   83.5048   15.2579 N.2     1  UNL1       -0.2234
     32 C          66.5432   94.6488   11.3117 C.2     1  UNL1        0.3569
     33 O          65.8513   95.9758   11.4134 O.2     1  UNL1       -0.2435
     34 O          67.6769   94.4660   10.3467 O.3     1  UNL1       -0.4446
     35 C          68.6975   92.3846    9.1737 C.3     1  UNL1        0.0513
     36 C          67.6008   93.4009    9.2932 C.3     1  UNL1        0.2089
@<TRIPOS>BOND
     1    35    36    1
     2    36    34    1
     3    34    32    1
     4    32    33    2
     5    32     1    1
     6     1     2    2
     7     2     3    1
     8     3     4    2
     9     4     5    1
    10     5     6    1
    11     6     7    1
    12     7     8    2
    13     8     9    1
    14     9    10    2
    15     9    11    1
    16    11    12    1
    17    12    13    1
    18     8    14    1
    19    14    17    1
    20    17    18   ar
    21    18    19   ar
    22    19    20   ar
    23    20    22    1
    24    22    23    1
    25    23    24    2
    26    24    25    1
    27    25    26    2
    28    26    27    1
    29    27    28    2
    30    28    29    1
    31    29    30    1
    32    30    31    2
    33    20    21   ar
    34     5     1    1
    35    13     7    1
    36    21    17   ar
    37    14     4    1
    38    31    23    1
    39    30    25    1
    40     6    15    1
    41    12    16    1
@<TRIPOS>MOLECULE
*****
 36 41 0 0 0
SMALL
GASTEIGER

@<TRIPOS>ATOM
      1 C          60.8283   88.1584    9.3907 C.2     1  UNL1        0.1558
      2 N          60.9368   89.6503    9.5019 N.2     1  UNL1       -0.2402
      3 C          61.7987   89.9651   10.6884 C.2     1  UNL1        0.0929
      4 C          62.2229   88.6678   11.3106 C.2     1  UNL1        0.0093
      5 C          61.6231   87.5511   10.5085 C.3     1  UNL1        0.1374
      6 N          61.8781   86.1257   10.8996 N.pl3   1  UNL1       -0.3285
      7 C          62.7330   85.8168   12.0929 C.2     1  UNL1        0.0378
      8 C          63.3328   86.9335   12.8950 C.2     1  UNL1        0.0350
      9 C          64.1877   86.6247   14.0882 C.2     1  UNL1        0.1866
     10 O          64.7875   87.7413   14.8903 O.2     1  UNL1       -0.2901
     11 C          64.4427   85.1992   14.4793 C.3     1  UNL1        0.1388
     12 N          63.8429   84.0826   13.6772 N.3     1  UNL1       -0.2862
     13 C          62.9880   84.3914   12.4840 C.3     1  UNL1        0.1103
     14 C          63.0777   88.3590   12.5038 C.3     1  UNL1        0.1050
     15 H          61.4844   85.3928   10.3732 H       1  UNL1        0.1471
     16 H          63.2677   83.5358   14.3180 H       1  UNL1        0.1240
     17 C          63.6775   89.4756   13.3059 C.ar    1  UNL1        0.1312
     18 C          63.2248   89.9290   14.6621 C.ar    1  UNL1        0.0373
     19 C          64.1028   91.0685   15.0870 C.ar    1  UNL1        0.0472
     20 C          65.0983   91.3194   13.9934 C.ar    1  UNL1        0.1774
     21 O          64.8354   90.3349   12.8926 O.2     1  UNL1       -0.4506
     22 S          66.1687   92.3702   13.9994 S.3     1  UNL1       -0.0117
     23 C          66.4166   93.1953   12.7716 C.2     1  UNL1        0.1967
     24 N          66.1255   94.6588   12.6192 N.2     1  UNL1       -0.2197
     25 C          66.5282   95.0698   11.2338 C.2     1  UNL1        0.0973
     26 C          66.4729   96.3892   10.5223 C.2     1  UNL1        0.0201
     27 C          66.9577   96.4988    9.1071 C.2     1  UNL1       -0.0026
     28 C          67.4977   95.2893    8.4033 C.2     1  UNL1       -0.0197
     29 C          67.5530   93.9699    9.1149 C.3     1  UNL1        0.0734
     30 C          67.0682   93.8602   10.5301 C.2     1  UNL1        0.0831
     31 N          66.9992   92.7017   11.4805 N.2     1  UNL1       -0.2234
     32 C          60.0598   87.4058    8.3452 C.2     1  UNL1        0.3569
     33 O          59.0842   88.1296    7.4652 O.2     1  UNL1       -0.2435
     34 O          60.2669   85.9294    8.1797 O.3     1  UNL1       -0.4446
     35 C          62.6896   85.1013    7.7384 C.3     1  UNL1        0.0513
     36 C          61.3136   85.4202    7.2335 C.3     1  UNL1        0.2089
@<TRIPOS>BOND
     1    35    36    1
     2    36    34    1
     3    34    32    1
     4    32    33    2
     5    32     1    1
     6     1     2    2
     7     2     3    1
     8     3     4    2
     9     4     5    1
    10     5     6    1
    11     6     7    1
    12     7     8    2
    13     8     9    1
    14     9    10    2
    15     9    11    1
    16    11    12    1
    17    12    13    1
    18     8    14    1
    19    14    17    1
    20    17    18   ar
    21    18    19   ar
    22    19    20   ar
    23    20    22    1
    24    22    23    1
    25    23    24    2
    26    24    25    1
    27    25    26    2
    28    26    27    1
    29    27    28    2
    30    28    29    1
    31    29    30    1
    32    30    31    2
    33    20    21   ar
    34     5     1    1
    35    13     7    1
    36    21    17   ar
    37    14     4    1
    38    31    23    1
    39    30    25    1
    40     6    15    1
    41    12    16    1
@<TRIPOS>MOLECULE
*****
 36 41 0 0 0
SMALL
GASTEIGER

@<TRIPOS>ATOM
      1 C          60.2193   89.1103    9.0892 C.2     1  UNL1        0.1558
      2 N          60.4487   90.5318    9.5096 N.2     1  UNL1       -0.2402
      3 C          61.3742   90.5224   10.6900 C.2     1  UNL1        0.0929
      4 C          61.7167   89.0952   10.9992 C.2     1  UNL1        0.0093
      5 C          61.0029   88.2224   10.0099 C.3     1  UNL1        0.1374
      6 N          61.1587   86.7320   10.0751 N.pl3   1  UNL1       -0.3285
      7 C          62.0283   86.1142   11.1297 C.2     1  UNL1        0.0378
      8 C          62.7421   86.9870   12.1191 C.2     1  UNL1        0.0350
      9 C          63.6117   86.3693   13.1737 C.2     1  UNL1        0.1866
     10 O          64.3255   87.2420   14.1630 O.2     1  UNL1       -0.2901
     11 C          63.7675   84.8789   13.2389 C.3     1  UNL1        0.1388
     12 N          63.0538   84.0061   12.2495 N.3     1  UNL1       -0.2862
     13 C          62.1842   84.6238   11.1950 C.3     1  UNL1        0.1103
     14 C          62.5863   88.4775   12.0538 C.3     1  UNL1        0.1050
     15 H          60.6902   86.1592    9.4257 H       1  UNL1        0.1471
     16 H          62.4603   83.3750   12.7880 H       1  UNL1        0.1240
     17 C          63.3001   89.3502   13.0432 C.ar    1  UNL1        0.1312
     18 C          63.0165   89.4302   14.5140 C.ar    1  UNL1        0.0373
     19 C          63.9639   90.4256   15.1153 C.ar    1  UNL1        0.0472
     20 C          64.8330   90.9609   14.0161 C.ar    1  UNL1        0.1774
     21 O          64.4227   90.2962   12.7355 O.2     1  UNL1       -0.4506
     22 S          65.9214   91.9815   14.1704 S.3     1  UNL1       -0.0117
     23 C          66.1639   92.9890   13.0860 C.2     1  UNL1        0.1967
     24 N          66.0468   94.4780   13.2236 N.2     1  UNL1       -0.2197
     25 C          66.3767   95.0937   11.8962 C.2     1  UNL1        0.0973
     26 C          66.4263   96.5206   11.4360 C.2     1  UNL1        0.0201
     27 C          66.7969   96.8387   10.0178 C.2     1  UNL1       -0.0026
     28 C          67.1180   95.7302    9.0597 C.2     1  UNL1       -0.0197
     29 C          67.0685   94.3034    9.5199 C.3     1  UNL1        0.0734
     30 C          66.6978   93.9851   10.9381 C.2     1  UNL1        0.0831
     31 N          66.5663   92.6843   11.6735 N.2     1  UNL1       -0.2234
     32 C          59.3575   88.6564    7.9485 C.2     1  UNL1        0.3569
     33 O          59.3111   87.2044    7.5752 O.2     1  UNL1       -0.2435
     34 O          58.5421   89.6545    7.1811 O.3     1  UNL1       -0.4446
     35 C          58.2317   91.1148    5.0548 C.3     1  UNL1        0.0513
     36 C          58.8704   89.9475    5.7471 C.3     1  UNL1        0.2089
@<TRIPOS>BOND
     1    35    36    1
     2    36    34    1
     3    34    32    1
     4    32    33    2
     5    32     1    1
     6     1     2    2
     7     2     3    1
     8     3     4    2
     9     4     5    1
    10     5     6    1
    11     6     7    1
    12     7     8    2
    13     8     9    1
    14     9    10    2
    15     9    11    1
    16    11    12    1
    17    12    13    1
    18     8    14    1
    19    14    17    1
    20    17    18   ar
    21    18    19   ar
    22    19    20   ar
    23    20    22    1
    24    22    23    1
    25    23    24    2
    26    24    25    1
    27    25    26    2
    28    26    27    1
    29    27    28    2
    30    28    29    1
    31    29    30    1
    32    30    31    2
    33    20    21   ar
    34     5     1    1
    35    13     7    1
    36    21    17   ar
    37    14     4    1
    38    31    23    1
    39    30    25    1
    40     6    15    1
    41    12    16    1
