@<TRIPOS>MOLECULE
*****
 46 50 0 0 0
SMALL
GASTEIGER

@<TRIPOS>ATOM
      1 C          61.2539   88.6647    9.4124 C.3     1  UNL1        0.1066
      2 C          60.4501   89.8129    8.8781 C.3     1  UNL1        0.0902
      3 N          59.4060   89.5731    7.8281 N.3     1  UNL1       -0.2884
      4 C          59.1658   88.1851    7.3125 C.3     1  UNL1        0.1555
      5 C          59.9697   87.0370    7.8468 C.2     1  UNL1        0.2455
      6 O          59.7295   85.6490    7.3311 O.2     1  UNL1       -0.2730
      7 N          61.0137   87.2768    8.8967 N.am    1  UNL1       -0.2569
      8 H          59.6604   90.1462    7.0236 H       1  UNL1        0.1237
      9 C          61.8176   86.1286    9.4311 C.ar    1  UNL1        0.0541
     10 C          62.8094   85.4319    8.5473 C.ar    1  UNL1        0.0180
     11 C          63.6133   84.2838    9.0816 C.ar    1  UNL1        0.0382
     12 C          63.4254   83.8323   10.4997 C.ar    1  UNL1        0.1386
     13 C          62.4337   84.5290   11.3835 C.ar    1  UNL1        0.0382
     14 C          61.6298   85.6772   10.8491 C.ar    1  UNL1        0.0180
     15 O          64.2293   82.6842   11.0340 O.3     1  UNL1       -0.4754
     16 C          63.5740   81.3560   11.2715 C.3     1  UNL1        0.2080
     17 C          62.3765   81.2604   12.1697 C.3     1  UNL1        0.0794
     18 C          62.4782   80.5391   13.4810 C.3     1  UNL1        0.1465
     19 O          62.7247   81.3100   14.7439 O.3     1  UNL1       -0.3488
     20 C          62.3404   82.7576   14.8261 C.3     1  UNL1        0.1716
     21 C          63.4032   83.8159   14.8445 C.ar    1  UNL1        0.0413
     22 C          64.6671   83.6233   14.0600 C.ar    1  UNL1        0.0012
     23 C          65.7299   84.6817   14.0784 C.ar    1  UNL1       -0.0000
     24 C          65.5288   85.9326   14.8812 C.ar    1  UNL1        0.0031
     25 C          64.2649   86.1253   15.6657 C.ar    1  UNL1        0.0367
     26 C          63.2021   85.0670   15.6473 C.ar    1  UNL1        0.1370
     27 O          61.9382   85.2596   16.4318 O.3     1  UNL1       -0.4717
     28 C          61.8735   86.3057   17.5049 C.3     1  UNL1        0.2525
     29 C          62.2980   88.9045   10.4624 C.3     1  UNL1        0.0837
     30 S          62.7800   90.2983   10.7362 S.3     1  UNL1       -0.1118
     31 N          66.3080   92.8790   13.5458 N.am    1  UNL1       -0.2529
     32 C          66.9179   93.2141   14.8746 C.2     1  UNL1        0.2739
     33 O          68.0720   94.1693   14.9506 O.2     1  UNL1       -0.2705
     34 C          66.3738   92.5941   16.1273 C.3     1  UNL1        0.2900
     35 O          65.2197   91.6389   16.0513 O.3     1  UNL1       -0.4643
     36 C          64.6098   91.3037   14.7226 C.ar    1  UNL1        0.1528
     37 C          63.4557   90.3486   14.6466 C.ar    1  UNL1        0.0387
     38 C          62.8458   90.0134   13.3178 C.ar    1  UNL1        0.0093
     39 C          63.3899   90.6335   12.0650 C.ar    1  UNL1        0.0267
     40 C          64.5440   91.5886   12.1410 C.ar    1  UNL1        0.0241
     41 C          65.1539   91.9238   13.4698 C.ar    1  UNL1        0.0886
     42 C          66.8521   93.4990   12.2930 C.3     1  UNL1        0.1010
     43 C          66.2148   94.7345   11.7296 C.3     1  UNL1        0.0539
     44 C          66.6534   95.2633   10.3962 C.3     1  UNL1        0.1440
     45 C          67.9260   93.5886    8.8712 C.3     1  UNL1        0.1741
     46 O          67.9338   94.7803    9.7821 O.3     1  UNL1       -0.3510
@<TRIPOS>BOND
     1    45    46    1
     2    46    44    1
     3    44    43    1
     4    43    42    1
     5    42    31    1
     6    31    32   am
     7    32    33    2
     8    32    34    1
     9    34    35    1
    10    35    36    1
    11    36    37   ar
    12    37    38   ar
    13    38    39   ar
    14    39    30    1
    15    30    29    1
    16     1    29    1
    17     1     2    1
    18     2     3    1
    19     3     4    1
    20     4     5    1
    21     5     6    2
    22     5     7   am
    23     7     9    1
    24     9    10   ar
    25    10    11   ar
    26    11    12   ar
    27    12    15    1
    28    15    16    1
    29    16    17    1
    30    17    18    1
    31    18    19    1
    32    19    20    1
    33    20    21    1
    34    21    22   ar
    35    22    23   ar
    36    23    24   ar
    37    24    25   ar
    38    25    26   ar
    39    26    27    1
    40    27    28    1
    41    12    13   ar
    42    13    14   ar
    43    39    40   ar
    44    40    41   ar
    45    41    31    1
    46    41    36   ar
    47     7     1    1
    48    14     9   ar
    49    26    21   ar
    50     3     8    1
@<TRIPOS>MOLECULE
*****
 46 50 0 0 0
SMALL
GASTEIGER

@<TRIPOS>ATOM
      1 C          61.2933   88.6138    9.4013 C.3     1  UNL1        0.1066
      2 C          60.5100   89.7522    8.8180 C.3     1  UNL1        0.0902
      3 N          59.4832   89.4899    7.7565 N.3     1  UNL1       -0.2884
      4 C          59.2397   88.0891    7.2783 C.3     1  UNL1        0.1555
      5 C          60.0231   86.9507    7.8617 C.2     1  UNL1        0.2455
      6 O          59.7796   85.5499    7.3836 O.2     1  UNL1       -0.2730
      7 N          61.0499   87.2130    8.9232 N.am    1  UNL1       -0.2569
      8 H          59.7575   90.0362    6.9400 H       1  UNL1        0.1237
      9 C          61.8333   86.0746    9.5066 C.ar    1  UNL1        0.0541
     10 C          61.6105   85.6635   10.9318 C.ar    1  UNL1        0.0180
     11 C          62.3938   84.5251   11.5153 C.ar    1  UNL1        0.0382
     12 C          63.4000   83.7978   10.6734 C.ar    1  UNL1        0.1386
     13 C          63.6228   84.2089    9.2482 C.ar    1  UNL1        0.0382
     14 C          62.8394   85.3473    8.6648 C.ar    1  UNL1        0.0180
     15 O          64.1834   82.6594   11.2569 O.3     1  UNL1       -0.4754
     16 C          63.4674   81.4772   11.8399 C.3     1  UNL1        0.2080
     17 C          63.3584   81.3256   13.3281 C.3     1  UNL1        0.0794
     18 C          62.0752   81.6688   14.0250 C.3     1  UNL1        0.1465
     19 O          61.9942   82.8939   14.8869 O.3     1  UNL1       -0.3488
     20 C          63.2461   83.6273   15.2674 C.3     1  UNL1        0.1716
     21 C          63.1578   84.9890   15.8900 C.ar    1  UNL1        0.0413
     22 C          62.2128   85.2331   17.0291 C.ar    1  UNL1        0.0012
     23 C          62.1245   86.5949   17.6517 C.ar    1  UNL1       -0.0000
     24 C          62.9811   87.7127   17.1353 C.ar    1  UNL1        0.0031
     25 C          63.9261   87.4687   15.9963 C.ar    1  UNL1        0.0367
     26 C          64.0145   86.1069   15.3736 C.ar    1  UNL1        0.1370
     27 O          64.9595   85.8629   14.2346 O.3     1  UNL1       -0.4717
     28 C          65.9532   84.7420   14.3115 C.3     1  UNL1        0.2525
     29 C          62.3202   88.8761   10.4629 C.3     1  UNL1        0.0837
     30 S          62.7166   90.2851   10.7911 S.3     1  UNL1       -0.1118
     31 N          66.1330   93.2865   13.3049 N.am    1  UNL1       -0.2529
     32 C          66.9699   93.5670   14.5176 C.2     1  UNL1        0.2739
     33 O          67.8412   94.7872   14.5618 O.2     1  UNL1       -0.2705
     34 C          66.9355   92.6274   15.6863 C.3     1  UNL1        0.2900
     35 O          66.0642   91.4072   15.6422 O.3     1  UNL1       -0.4643
     36 C          65.2273   91.1266   14.4294 C.ar    1  UNL1        0.1528
     37 C          64.3560   89.9064   14.3853 C.ar    1  UNL1        0.0387
     38 C          63.5191   89.6259   13.1726 C.ar    1  UNL1        0.0093
     39 C          63.5535   90.5656   12.0038 C.ar    1  UNL1        0.0267
     40 C          64.4248   91.7858   12.0479 C.ar    1  UNL1        0.0241
     41 C          65.2617   92.0663   13.2608 C.ar    1  UNL1        0.0886
     42 C          66.1674   94.2262   12.1362 C.3     1  UNL1        0.1010
     43 C          66.2915   93.6856   10.7425 C.3     1  UNL1        0.0539
     44 C          67.2444   94.3208    9.7737 C.3     1  UNL1        0.1440
     45 C          68.9791   92.4878    9.1566 C.3     1  UNL1        0.1741
     46 O          68.6667   93.8496    9.7025 O.3     1  UNL1       -0.3510
@<TRIPOS>BOND
     1    45    46    1
     2    46    44    1
     3    44    43    1
     4    43    42    1
     5    42    31    1
     6    31    32   am
     7    32    33    2
     8    32    34    1
     9    34    35    1
    10    35    36    1
    11    36    37   ar
    12    37    38   ar
    13    38    39   ar
    14    39    30    1
    15    30    29    1
    16     1    29    1
    17     1     2    1
    18     2     3    1
    19     3     4    1
    20     4     5    1
    21     5     6    2
    22     5     7   am
    23     7     9    1
    24     9    10   ar
    25    10    11   ar
    26    11    12   ar
    27    12    15    1
    28    15    16    1
    29    16    17    1
    30    17    18    1
    31    18    19    1
    32    19    20    1
    33    20    21    1
    34    21    22   ar
    35    22    23   ar
    36    23    24   ar
    37    24    25   ar
    38    25    26   ar
    39    26    27    1
    40    27    28    1
    41    12    13   ar
    42    13    14   ar
    43    39    40   ar
    44    40    41   ar
    45    41    31    1
    46    41    36   ar
    47     7     1    1
    48    14     9   ar
    49    26    21   ar
    50     3     8    1
@<TRIPOS>MOLECULE
*****
 46 50 0 0 0
SMALL
GASTEIGER

@<TRIPOS>ATOM
      1 C          60.9693   88.3132    9.1020 C.3     1  UNL1        0.1066
      2 C          60.0207   89.3278    8.5356 C.3     1  UNL1        0.0902
      3 N          59.0168   88.9191    7.4988 N.3     1  UNL1       -0.2884
      4 C          58.9615   87.4959    7.0283 C.3     1  UNL1        0.1555
      5 C          59.9100   86.4813    7.5947 C.2     1  UNL1        0.2455
      6 O          59.8547   85.0581    7.1242 O.2     1  UNL1       -0.2730
      7 N          60.9139   86.8900    8.6316 N.am    1  UNL1       -0.2569
      8 H          59.1929   89.4948    6.6754 H       1  UNL1        0.1237
      9 C          61.8626   85.8754    9.1980 C.ar    1  UNL1        0.0541
     10 C          61.7741   85.4920   10.6455 C.ar    1  UNL1        0.0180
     11 C          62.7226   84.4775   11.2119 C.ar    1  UNL1        0.0382
     12 C          63.7598   83.8463   10.3309 C.ar    1  UNL1        0.1386
     13 C          63.8483   84.2298    8.8835 C.ar    1  UNL1        0.0382
     14 C          62.8996   85.2444    8.3170 C.ar    1  UNL1        0.0180
     15 O          64.7084   82.8318   10.8974 O.3     1  UNL1       -0.4754
     16 C          64.2961   81.9922   12.0700 C.3     1  UNL1        0.2080
     17 C          62.9730   81.2857   12.0584 C.3     1  UNL1        0.0794
     18 C          62.1939   81.1315   13.3309 C.3     1  UNL1        0.1465
     19 O          61.6499   82.3428   14.0288 O.3     1  UNL1       -0.3488
     20 C          62.3289   82.8677   15.2590 C.3     1  UNL1        0.1716
     21 C          63.3741   83.9370   15.1405 C.ar    1  UNL1        0.0413
     22 C          64.6107   83.6902   14.3280 C.ar    1  UNL1        0.0012
     23 C          65.6559   84.7596   14.2095 C.ar    1  UNL1       -0.0000
     24 C          65.4645   86.0756   14.9033 C.ar    1  UNL1        0.0031
     25 C          64.2280   86.3223   15.7157 C.ar    1  UNL1        0.0367
     26 C          63.1828   85.2531   15.8343 C.ar    1  UNL1        0.1370
     27 O          61.9462   85.4998   16.6467 O.3     1  UNL1       -0.4717
     28 C          61.9214   86.6081   17.6572 C.3     1  UNL1        0.2525
     29 C          61.9732   88.7219   10.1389 C.3     1  UNL1        0.0837
     30 S          61.8532   90.0558   10.8144 S.3     1  UNL1       -0.1118
     31 N          65.8035   90.9847   14.0598 N.am    1  UNL1       -0.2529
     32 C          67.0379   91.7590   14.4155 C.2     1  UNL1        0.2739
     33 O          67.7786   91.4491   15.6825 O.2     1  UNL1       -0.2705
     34 C          67.5316   92.8433   13.5042 C.3     1  UNL1        0.2900
     35 O          66.7910   93.1532   12.2372 O.3     1  UNL1       -0.4643
     36 C          65.5565   92.3789   11.8815 C.ar    1  UNL1        0.1528
     37 C          64.8158   92.6888   10.6145 C.ar    1  UNL1        0.0387
     38 C          63.5814   91.9145   10.2588 C.ar    1  UNL1        0.0093
     39 C          63.0876   90.8302   11.1701 C.ar    1  UNL1        0.0267
     40 C          63.8283   90.5202   12.4371 C.ar    1  UNL1        0.0241
     41 C          65.0628   91.2946   12.7928 C.ar    1  UNL1        0.0886
     42 C          65.3097   89.9003   14.9711 C.3     1  UNL1        0.1010
     43 C          63.8551   89.8266   15.3297 C.3     1  UNL1        0.0539
     44 C          63.3543   90.4985   16.5739 C.3     1  UNL1        0.1440
     45 C          64.6862   92.6687   17.0896 C.3     1  UNL1        0.1741
     46 O          63.4074   91.9928   16.6924 O.3     1  UNL1       -0.3510
@<TRIPOS>BOND
     1    45    46    1
     2    46    44    1
     3    44    43    1
     4    43    42    1
     5    42    31    1
     6    31    32   am
     7    32    33    2
     8    32    34    1
     9    34    35    1
    10    35    36    1
    11    36    37   ar
    12    37    38   ar
    13    38    39   ar
    14    39    30    1
    15    30    29    1
    16     1    29    1
    17     1     2    1
    18     2     3    1
    19     3     4    1
    20     4     5    1
    21     5     6    2
    22     5     7   am
    23     7     9    1
    24     9    10   ar
    25    10    11   ar
    26    11    12   ar
    27    12    15    1
    28    15    16    1
    29    16    17    1
    30    17    18    1
    31    18    19    1
    32    19    20    1
    33    20    21    1
    34    21    22   ar
    35    22    23   ar
    36    23    24   ar
    37    24    25   ar
    38    25    26   ar
    39    26    27    1
    40    27    28    1
    41    12    13   ar
    42    13    14   ar
    43    39    40   ar
    44    40    41   ar
    45    41    31    1
    46    41    36   ar
    47     7     1    1
    48    14     9   ar
    49    26    21   ar
    50     3     8    1
@<TRIPOS>MOLECULE
*****
 46 50 0 0 0
SMALL
GASTEIGER

@<TRIPOS>ATOM
      1 C          63.7259   82.5158   11.5470 C.3     1  UNL1        0.1066
      2 C          63.3676   81.1563   11.0243 C.3     1  UNL1        0.0902
      3 N          62.7315   80.1469   11.9334 N.3     1  UNL1       -0.2884
      4 C          62.4537   80.4971   13.3653 C.3     1  UNL1        0.1555
      5 C          62.8120   81.8566   13.8880 C.2     1  UNL1        0.2455
      6 O          62.5342   82.2068   15.3199 O.2     1  UNL1       -0.2730
      7 N          63.4481   82.8659   12.9789 N.am    1  UNL1       -0.2569
      8 H          63.3446   79.3318   11.9433 H       1  UNL1        0.1237
      9 C          63.8064   84.2256   13.5016 C.ar    1  UNL1        0.0541
     10 C          62.9590   85.4119   13.1490 C.ar    1  UNL1        0.0180
     11 C          63.3172   86.7715   13.6716 C.ar    1  UNL1        0.0382
     12 C          64.5230   86.9447   14.5470 C.ar    1  UNL1        0.1386
     13 C          65.3704   85.7583   14.8997 C.ar    1  UNL1        0.0382
     14 C          65.0121   84.3987   14.3769 C.ar    1  UNL1        0.0180
     15 O          64.8813   88.3043   15.0696 O.3     1  UNL1       -0.4754
     16 C          63.8091   89.3303   15.2882 C.3     1  UNL1        0.2080
     17 C          64.1150   90.7866   15.0997 C.3     1  UNL1        0.0794
     18 C          65.2071   91.2083   14.1619 C.3     1  UNL1        0.1465
     19 O          65.0264   92.4206   13.2971 O.3     1  UNL1       -0.3488
     20 C          66.2011   93.2981   12.9808 C.3     1  UNL1        0.1716
     21 C          66.8325   93.2448   11.6213 C.ar    1  UNL1        0.0413
     22 C          67.7713   92.1277   11.2736 C.ar    1  UNL1        0.0012
     23 C          68.4027   92.0744    9.9140 C.ar    1  UNL1       -0.0000
     24 C          68.0954   93.1382    8.9021 C.ar    1  UNL1        0.0031
     25 C          67.1567   94.2553    9.2498 C.ar    1  UNL1        0.0367
     26 C          66.5252   94.3086   10.6093 C.ar    1  UNL1        0.1370
     27 O          65.5865   95.4256   10.9570 O.3     1  UNL1       -0.4717
     28 C          66.1259   96.7211   11.4870 C.3     1  UNL1        0.2525
     29 C          64.3620   83.5252   10.6379 C.3     1  UNL1        0.0837
     30 S          64.0108   83.5478    9.1798 S.3     1  UNL1       -0.1118
     31 N          61.0692   87.7773    9.8570 N.am    1  UNL1       -0.2529
     32 C          60.0237   88.7270    9.3520 C.2     1  UNL1        0.2739
     33 O          59.5985   89.8920   10.1957 O.2     1  UNL1       -0.2705
     34 C          59.4035   88.5115    8.0034 C.3     1  UNL1        0.2900
     35 O          59.8288   87.3465    7.1597 O.3     1  UNL1       -0.4643
     36 C          60.8743   86.3968    7.6647 C.ar    1  UNL1        0.1528
     37 C          61.2995   85.2317    6.8211 C.ar    1  UNL1        0.0387
     38 C          62.3450   84.2821    7.3261 C.ar    1  UNL1        0.0093
     39 C          62.9653   84.4975    8.6748 C.ar    1  UNL1        0.0267
     40 C          62.5400   85.6625    9.5184 C.ar    1  UNL1        0.0241
     41 C          61.4945   86.6122    9.0134 C.ar    1  UNL1        0.0886
     42 C          61.6895   87.9927   11.2057 C.3     1  UNL1        0.1010
     43 C          62.7924   88.9955   11.3725 C.3     1  UNL1        0.0539
     44 C          62.4800   90.3806   11.8561 C.3     1  UNL1        0.1440
     45 C          63.8701   91.7194   10.1168 C.3     1  UNL1        0.1741
     46 O          62.6184   91.5489   10.9256 O.3     1  UNL1       -0.3510
@<TRIPOS>BOND
     1    45    46    1
     2    46    44    1
     3    44    43    1
     4    43    42    1
     5    42    31    1
     6    31    32   am
     7    32    33    2
     8    32    34    1
     9    34    35    1
    10    35    36    1
    11    36    37   ar
    12    37    38   ar
    13    38    39   ar
    14    39    30    1
    15    30    29    1
    16     1    29    1
    17     1     2    1
    18     2     3    1
    19     3     4    1
    20     4     5    1
    21     5     6    2
    22     5     7   am
    23     7     9    1
    24     9    10   ar
    25    10    11   ar
    26    11    12   ar
    27    12    15    1
    28    15    16    1
    29    16    17    1
    30    17    18    1
    31    18    19    1
    32    19    20    1
    33    20    21    1
    34    21    22   ar
    35    22    23   ar
    36    23    24   ar
    37    24    25   ar
    38    25    26   ar
    39    26    27    1
    40    27    28    1
    41    12    13   ar
    42    13    14   ar
    43    39    40   ar
    44    40    41   ar
    45    41    31    1
    46    41    36   ar
    47     7     1    1
    48    14     9   ar
    49    26    21   ar
    50     3     8    1
@<TRIPOS>MOLECULE
*****
 46 50 0 0 0
SMALL
GASTEIGER

@<TRIPOS>ATOM
      1 C          63.4581   82.3832   11.5290 C.3     1  UNL1        0.1066
      2 C          63.3168   81.2511   10.5553 C.3     1  UNL1        0.0902
      3 N          62.8618   79.9038   11.0326 N.3     1  UNL1       -0.2884
      4 C          62.5481   79.6887   12.4835 C.3     1  UNL1        0.1555
      5 C          62.6894   80.8209   13.4573 C.2     1  UNL1        0.2455
      6 O          62.3757   80.6058   14.9082 O.2     1  UNL1       -0.2730
      7 N          63.1444   82.1681   12.9800 N.am    1  UNL1       -0.2569
      8 H          63.5980   79.2411   10.7891 H       1  UNL1        0.1237
      9 C          63.2856   83.3004   13.9538 C.ar    1  UNL1        0.0541
     10 C          62.1506   83.6464   14.8714 C.ar    1  UNL1        0.0180
     11 C          62.2919   84.7786   15.8451 C.ar    1  UNL1        0.0382
     12 C          63.5681   85.5648   15.9012 C.ar    1  UNL1        0.1386
     13 C          64.7031   85.2188   14.9836 C.ar    1  UNL1        0.0382
     14 C          64.5619   84.0865   14.0098 C.ar    1  UNL1        0.0180
     15 O          63.7094   86.6970   16.8749 O.3     1  UNL1       -0.4754
     16 C          62.8006   87.8865   16.7790 C.3     1  UNL1        0.2080
     17 C          63.3677   89.2408   16.4720 C.3     1  UNL1        0.0794
     18 C          63.4900   89.6976   15.0484 C.3     1  UNL1        0.1465
     19 O          63.7258   91.1473   14.7436 O.3     1  UNL1       -0.3488
     20 C          64.8633   91.5510   13.8531 C.3     1  UNL1        0.1716
     21 C          66.1662   91.9899   14.4529 C.ar    1  UNL1        0.0413
     22 C          66.2160   92.4596   15.8766 C.ar    1  UNL1        0.0012
     23 C          67.5189   92.8985   16.4765 C.ar    1  UNL1       -0.0000
     24 C          68.7720   92.8676   15.6526 C.ar    1  UNL1        0.0031
     25 C          68.7223   92.3979   14.2289 C.ar    1  UNL1        0.0367
     26 C          67.4194   91.9591   13.6291 C.ar    1  UNL1        0.1370
     27 O          67.3696   91.4894   12.2054 O.3     1  UNL1       -0.4717
     28 C          68.1689   92.1991   11.1531 C.3     1  UNL1        0.2525
     29 C          63.9131   83.7306   11.0518 C.3     1  UNL1        0.0837
     30 S          63.9003   84.0508    9.5864 S.3     1  UNL1       -0.1118
     31 N          61.0420   88.3676   10.0284 N.am    1  UNL1       -0.2529
     32 C          60.0101   89.3047    9.4744 C.2     1  UNL1        0.2739
     33 O          59.6129   90.5260   10.2494 O.2     1  UNL1       -0.2705
     34 C          59.3753   89.0204    8.1454 C.3     1  UNL1        0.2900
     35 O          59.7725   87.7991    7.3704 O.3     1  UNL1       -0.4643
     36 C          60.8044   86.8620    7.9244 C.ar    1  UNL1        0.1528
     37 C          61.2016   85.6407    7.1494 C.ar    1  UNL1        0.0387
     38 C          62.2335   84.7036    7.7034 C.ar    1  UNL1        0.0093
     39 C          62.8684   84.9879    9.0325 C.ar    1  UNL1        0.0267
     40 C          62.4712   86.2092    9.8074 C.ar    1  UNL1        0.0241
     41 C          61.4392   87.1463    9.2534 C.ar    1  UNL1        0.0886
     42 C          61.6769   88.6519   11.3574 C.3     1  UNL1        0.1010
     43 C          62.8611   89.5686   11.4422 C.3     1  UNL1        0.0539
     44 C          62.6961   91.0343   11.1689 C.3     1  UNL1        0.1440
     45 C          64.6452   92.5894   10.4393 C.3     1  UNL1        0.1741
     46 O          63.4985   91.6900   10.0844 O.3     1  UNL1       -0.3510
@<TRIPOS>BOND
     1    45    46    1
     2    46    44    1
     3    44    43    1
     4    43    42    1
     5    42    31    1
     6    31    32   am
     7    32    33    2
     8    32    34    1
     9    34    35    1
    10    35    36    1
    11    36    37   ar
    12    37    38   ar
    13    38    39   ar
    14    39    30    1
    15    30    29    1
    16     1    29    1
    17     1     2    1
    18     2     3    1
    19     3     4    1
    20     4     5    1
    21     5     6    2
    22     5     7   am
    23     7     9    1
    24     9    10   ar
    25    10    11   ar
    26    11    12   ar
    27    12    15    1
    28    15    16    1
    29    16    17    1
    30    17    18    1
    31    18    19    1
    32    19    20    1
    33    20    21    1
    34    21    22   ar
    35    22    23   ar
    36    23    24   ar
    37    24    25   ar
    38    25    26   ar
    39    26    27    1
    40    27    28    1
    41    12    13   ar
    42    13    14   ar
    43    39    40   ar
    44    40    41   ar
    45    41    31    1
    46    41    36   ar
    47     7     1    1
    48    14     9   ar
    49    26    21   ar
    50     3     8    1
@<TRIPOS>MOLECULE
*****
 46 50 0 0 0
SMALL
GASTEIGER

@<TRIPOS>ATOM
      1 C          65.1577   91.8966   12.4725 C.3     1  UNL1        0.1066
      2 C          65.8674   92.9828   11.7198 C.3     1  UNL1        0.0902
      3 N          66.7058   93.9829   12.4592 N.3     1  UNL1       -0.2884
      4 C          66.8347   93.8968   13.9512 C.3     1  UNL1        0.1555
      5 C          66.1250   92.8106   14.7038 C.2     1  UNL1        0.2455
      6 O          66.2539   92.7245   16.1958 O.2     1  UNL1       -0.2730
      7 N          65.2866   91.8105   13.9645 N.am    1  UNL1       -0.2569
      8 H          66.3195   94.9033   12.2496 H       1  UNL1        0.1237
      9 C          64.5769   90.7242   14.7171 C.ar    1  UNL1        0.0541
     10 C          63.5531   91.0766   15.7552 C.ar    1  UNL1        0.0180
     11 C          62.8434   89.9904   16.5078 C.ar    1  UNL1        0.0382
     12 C          63.1575   88.5517   16.2224 C.ar    1  UNL1        0.1386
     13 C          64.1813   88.1992   15.1843 C.ar    1  UNL1        0.0382
     14 C          64.8910   89.2855   14.4316 C.ar    1  UNL1        0.0180
     15 O          62.4478   87.4655   16.9750 O.3     1  UNL1       -0.4754
     16 C          63.2324   86.3506   17.6005 C.3     1  UNL1        0.2080
     17 C          63.5255   85.1069   16.8148 C.3     1  UNL1        0.0794
     18 C          62.5115   84.5759   15.8453 C.3     1  UNL1        0.1465
     19 O          62.6335   83.1742   15.3251 O.3     1  UNL1       -0.3488
     20 C          63.8634   82.7571   14.5746 C.3     1  UNL1        0.1716
     21 C          63.7450   82.2253   13.1771 C.ar    1  UNL1        0.0413
     22 C          64.5477   82.8413   12.0697 C.ar    1  UNL1        0.0012
     23 C          64.4292   82.3094   10.6721 C.ar    1  UNL1       -0.0000
     24 C          63.5081   81.1617   10.3820 C.ar    1  UNL1        0.0031
     25 C          62.7054   80.5457   11.4894 C.ar    1  UNL1        0.0367
     26 C          62.8238   81.0775   12.8869 C.ar    1  UNL1        0.1370
     27 O          62.0211   80.4616   13.9943 O.3     1  UNL1       -0.4717
     28 C          60.5605   80.7764   14.1266 C.3     1  UNL1        0.2525
     29 C          64.3192   90.8964   11.7332 C.3     1  UNL1        0.0837
     30 S          62.9242   90.5983   12.1969 S.3     1  UNL1       -0.1118
     31 N          61.4747   87.0187    8.7205 N.am    1  UNL1       -0.2529
     32 C          60.4612   86.4828    7.7532 C.2     1  UNL1        0.2739
     33 O          60.7500   85.2289    6.9823 O.2     1  UNL1       -0.2705
     34 C          59.1590   87.2007    7.5570 C.3     1  UNL1        0.2900
     35 O          58.8702   88.4546    8.3279 O.3     1  UNL1       -0.4643
     36 C          59.8836   88.9905    9.2952 C.ar    1  UNL1        0.1528
     37 C          59.5948   90.2444   10.0661 C.ar    1  UNL1        0.0387
     38 C          60.6083   90.7803   11.0334 C.ar    1  UNL1        0.0093
     39 C          61.9107   90.0624   11.2297 C.ar    1  UNL1        0.0267
     40 C          62.1995   88.8085   10.4587 C.ar    1  UNL1        0.0241
     41 C          61.1859   88.2726    9.4914 C.ar    1  UNL1        0.0886
     42 C          62.7771   86.3007    8.9168 C.3     1  UNL1        0.1010
     43 C          62.8360   85.0774    9.7827 C.3     1  UNL1        0.0539
     44 C          61.8863   84.9271   10.9341 C.3     1  UNL1        0.1440
     45 C          63.2209   86.0519   12.8585 C.3     1  UNL1        0.1741
     46 O          61.9460   85.8863   12.0857 O.3     1  UNL1       -0.3510
@<TRIPOS>BOND
     1    45    46    1
     2    46    44    1
     3    44    43    1
     4    43    42    1
     5    42    31    1
     6    31    32   am
     7    32    33    2
     8    32    34    1
     9    34    35    1
    10    35    36    1
    11    36    37   ar
    12    37    38   ar
    13    38    39   ar
    14    39    30    1
    15    30    29    1
    16     1    29    1
    17     1     2    1
    18     2     3    1
    19     3     4    1
    20     4     5    1
    21     5     6    2
    22     5     7   am
    23     7     9    1
    24     9    10   ar
    25    10    11   ar
    26    11    12   ar
    27    12    15    1
    28    15    16    1
    29    16    17    1
    30    17    18    1
    31    18    19    1
    32    19    20    1
    33    20    21    1
    34    21    22   ar
    35    22    23   ar
    36    23    24   ar
    37    24    25   ar
    38    25    26   ar
    39    26    27    1
    40    27    28    1
    41    12    13   ar
    42    13    14   ar
    43    39    40   ar
    44    40    41   ar
    45    41    31    1
    46    41    36   ar
    47     7     1    1
    48    14     9   ar
    49    26    21   ar
    50     3     8    1
@<TRIPOS>MOLECULE
*****
 46 50 0 0 0
SMALL
GASTEIGER

@<TRIPOS>ATOM
      1 C          63.6814   87.8467   15.2257 C.3     1  UNL1        0.1066
      2 C          63.5666   89.0990   16.0433 C.3     1  UNL1        0.0902
      3 N          63.1330   89.0215   17.4771 N.3     1  UNL1       -0.2884
      4 C          62.8141   87.6916   18.0933 C.3     1  UNL1        0.1555
      5 C          62.9289   86.4393   17.2757 C.2     1  UNL1        0.2455
      6 O          62.6100   85.1094   17.8919 O.2     1  UNL1       -0.2730
      7 N          63.3625   86.5169   15.8419 N.am    1  UNL1       -0.2569
      8 H          62.2934   89.5943   17.5622 H       1  UNL1        0.1237
      9 C          63.4772   85.2645   15.0242 C.ar    1  UNL1        0.0541
     10 C          62.2703   84.4029   14.7985 C.ar    1  UNL1        0.0180
     11 C          62.3850   83.1506   13.9809 C.ar    1  UNL1        0.0382
     12 C          63.7067   82.7599   13.3888 C.ar    1  UNL1        0.1386
     13 C          64.9137   83.6215   13.6145 C.ar    1  UNL1        0.0382
     14 C          64.7989   84.8738   14.4322 C.ar    1  UNL1        0.0180
     15 O          63.8214   81.5076   12.5712 O.3     1  UNL1       -0.4754
     16 C          63.4827   81.5322   11.1102 C.3     1  UNL1        0.2080
     17 C          64.1361   82.5345   10.2055 C.3     1  UNL1        0.0794
     18 C          63.5457   83.9051   10.0542 C.3     1  UNL1        0.1465
     19 O          62.3373   84.2936   10.8534 O.3     1  UNL1       -0.3488
     20 C          61.9379   85.7359   10.9560 C.3     1  UNL1        0.1716
     21 C          61.0654   86.3493    9.9013 C.ar    1  UNL1        0.0413
     22 C          61.0089   85.7448    8.5297 C.ar    1  UNL1        0.0012
     23 C          60.1364   86.3583    7.4750 C.ar    1  UNL1       -0.0000
     24 C          59.3203   87.5763    7.7920 C.ar    1  UNL1        0.0031
     25 C          59.3768   88.1809    9.1636 C.ar    1  UNL1        0.0367
     26 C          60.2493   87.5674   10.2182 C.ar    1  UNL1        0.1370
     27 O          60.3058   88.1719   11.5899 O.3     1  UNL1       -0.4717
     28 C          59.6349   89.4864   11.8583 C.3     1  UNL1        0.2525
     29 C          64.1150   87.9243   13.7917 C.3     1  UNL1        0.0837
     30 S          63.2217   88.5658   12.7717 S.3     1  UNL1       -0.1118
     31 N          65.7418   93.1067   12.9428 N.am    1  UNL1       -0.2529
     32 C          66.1570   94.3877   12.2820 C.2     1  UNL1        0.2739
     33 O          67.0019   95.3772   13.0284 O.2     1  UNL1       -0.2705
     34 C          65.7272   94.6792   10.8748 C.3     1  UNL1        0.2900
     35 O          64.8823   93.6898   10.1284 O.3     1  UNL1       -0.4643
     36 C          64.4671   92.4088   10.7892 C.ar    1  UNL1        0.1528
     37 C          63.6222   91.4194   10.0428 C.ar    1  UNL1        0.0387
     38 C          63.2071   90.1384   10.7036 C.ar    1  UNL1        0.0093
     39 C          63.6369   89.8468   12.1109 C.ar    1  UNL1        0.0267
     40 C          64.4818   90.8362   12.8573 C.ar    1  UNL1        0.0241
     41 C          64.8969   92.1173   12.1964 C.ar    1  UNL1        0.0886
     42 C          66.1716   92.8151   14.3501 C.3     1  UNL1        0.1010
     43 C          67.0974   91.6685   14.6292 C.3     1  UNL1        0.0539
     44 C          68.4297   91.9193   15.2714 C.3     1  UNL1        0.1440
     45 C          69.1033   94.3171   16.0105 C.3     1  UNL1        0.1741
     46 O          69.1595   93.2030   15.0078 O.3     1  UNL1       -0.3510
@<TRIPOS>BOND
     1    45    46    1
     2    46    44    1
     3    44    43    1
     4    43    42    1
     5    42    31    1
     6    31    32   am
     7    32    33    2
     8    32    34    1
     9    34    35    1
    10    35    36    1
    11    36    37   ar
    12    37    38   ar
    13    38    39   ar
    14    39    30    1
    15    30    29    1
    16     1    29    1
    17     1     2    1
    18     2     3    1
    19     3     4    1
    20     4     5    1
    21     5     6    2
    22     5     7   am
    23     7     9    1
    24     9    10   ar
    25    10    11   ar
    26    11    12   ar
    27    12    15    1
    28    15    16    1
    29    16    17    1
    30    17    18    1
    31    18    19    1
    32    19    20    1
    33    20    21    1
    34    21    22   ar
    35    22    23   ar
    36    23    24   ar
    37    24    25   ar
    38    25    26   ar
    39    26    27    1
    40    27    28    1
    41    12    13   ar
    42    13    14   ar
    43    39    40   ar
    44    40    41   ar
    45    41    31    1
    46    41    36   ar
    47     7     1    1
    48    14     9   ar
    49    26    21   ar
    50     3     8    1
@<TRIPOS>MOLECULE
*****
 46 50 0 0 0
SMALL
GASTEIGER

@<TRIPOS>ATOM
      1 C          63.3629   81.6461   11.1431 C.3     1  UNL1        0.1066
      2 C          63.1379   80.5205   10.1776 C.3     1  UNL1        0.0902
      3 N          62.7279   79.1692   10.6833 N.3     1  UNL1       -0.2884
      4 C          62.5428   78.9435   12.1546 C.3     1  UNL1        0.1555
      5 C          62.7677   80.0691   13.1202 C.2     1  UNL1        0.2455
      6 O          62.5826   79.8434   14.5915 O.2     1  UNL1       -0.2730
      7 N          63.1777   81.4204   12.6145 N.am    1  UNL1       -0.2569
      8 H          63.4406   78.5095   10.3716 H       1  UNL1        0.1237
      9 C          63.4027   82.5461   13.5801 C.ar    1  UNL1        0.0541
     10 C          62.2545   83.0923   14.3759 C.ar    1  UNL1        0.0180
     11 C          62.4794   84.2179   15.3415 C.ar    1  UNL1        0.0382
     12 C          63.8525   84.7974   15.5112 C.ar    1  UNL1        0.1386
     13 C          65.0007   84.2513   14.7154 C.ar    1  UNL1        0.0382
     14 C          64.7757   83.1256   13.7498 C.ar    1  UNL1        0.0180
     15 O          64.0774   85.9231   16.4768 O.3     1  UNL1       -0.4754
     16 C          62.9310   86.7985   16.8883 C.3     1  UNL1        0.2080
     17 C          63.0697   88.2910   16.8334 C.3     1  UNL1        0.0794
     18 C          63.5899   88.9508   15.5907 C.3     1  UNL1        0.1465
     19 O          63.4707   90.4368   15.4245 O.3     1  UNL1       -0.3488
     20 C          64.7061   91.2826   15.3321 C.3     1  UNL1        0.1716
     21 C          65.2637   91.6515   13.9894 C.ar    1  UNL1        0.0413
     22 C          64.3664   91.6844   12.7879 C.ar    1  UNL1        0.0012
     23 C          64.9241   92.0534   11.4451 C.ar    1  UNL1       -0.0000
     24 C          66.3791   92.3895   11.3040 C.ar    1  UNL1        0.0031
     25 C          67.2765   92.3566   12.5056 C.ar    1  UNL1        0.0367
     26 C          66.7188   91.9876   13.8482 C.ar    1  UNL1        0.1370
     27 O          67.6162   91.9547   15.0498 O.3     1  UNL1       -0.4717
     28 C          67.8279   93.1979   15.8619 C.3     1  UNL1        0.2525
     29 C          63.7729   82.9975   10.6374 C.3     1  UNL1        0.0837
     30 S          62.7432   83.9317   10.0743 S.3     1  UNL1       -0.1118
     31 N          60.3805   88.5595   10.0947 N.am    1  UNL1       -0.2529
     32 C          60.1765   89.9112   10.7121 C.2     1  UNL1        0.2739
     33 O          59.1990   90.8734   10.1048 O.2     1  UNL1       -0.2705
     34 C          60.9499   90.3007   11.9369 C.3     1  UNL1        0.2900
     35 O          61.9273   89.3384   12.5442 O.3     1  UNL1       -0.4643
     36 C          62.1313   87.9868   11.9267 C.ar    1  UNL1        0.1528
     37 C          63.1087   87.0246   12.5340 C.ar    1  UNL1        0.0387
     38 C          63.3127   85.6729   11.9166 C.ar    1  UNL1        0.0093
     39 C          62.5392   85.2834   10.6917 C.ar    1  UNL1        0.0267
     40 C          61.5618   86.2456   10.0844 C.ar    1  UNL1        0.0241
     41 C          61.3579   87.5973   10.7020 C.ar    1  UNL1        0.0886
     42 C          59.6070   88.1700    8.8698 C.3     1  UNL1        0.1010
     43 C          59.9837   88.7369    7.5332 C.3     1  UNL1        0.0539
     44 C          59.0713   89.7101    6.8472 C.3     1  UNL1        0.1440
     45 C          58.7231   91.4755    4.9732 C.3     1  UNL1        0.1741
     46 O          59.4485   90.2778    5.5110 O.3     1  UNL1       -0.3510
@<TRIPOS>BOND
     1    45    46    1
     2    46    44    1
     3    44    43    1
     4    43    42    1
     5    42    31    1
     6    31    32   am
     7    32    33    2
     8    32    34    1
     9    34    35    1
    10    35    36    1
    11    36    37   ar
    12    37    38   ar
    13    38    39   ar
    14    39    30    1
    15    30    29    1
    16     1    29    1
    17     1     2    1
    18     2     3    1
    19     3     4    1
    20     4     5    1
    21     5     6    2
    22     5     7   am
    23     7     9    1
    24     9    10   ar
    25    10    11   ar
    26    11    12   ar
    27    12    15    1
    28    15    16    1
    29    16    17    1
    30    17    18    1
    31    18    19    1
    32    19    20    1
    33    20    21    1
    34    21    22   ar
    35    22    23   ar
    36    23    24   ar
    37    24    25   ar
    38    25    26   ar
    39    26    27    1
    40    27    28    1
    41    12    13   ar
    42    13    14   ar
    43    39    40   ar
    44    40    41   ar
    45    41    31    1
    46    41    36   ar
    47     7     1    1
    48    14     9   ar
    49    26    21   ar
    50     3     8    1
@<TRIPOS>MOLECULE
*****
 46 50 0 0 0
SMALL
GASTEIGER

@<TRIPOS>ATOM
      1 C          63.6260   82.0523   11.4579 C.3     1  UNL1        0.1066
      2 C          63.4706   80.8148   10.6245 C.3     1  UNL1        0.0902
      3 N          62.8424   79.5873   11.2147 N.3     1  UNL1       -0.2884
      4 C          62.3696   79.5971   12.6382 C.3     1  UNL1        0.1555
      5 C          62.5251   80.8346   13.4716 C.2     1  UNL1        0.2455
      6 O          62.0524   80.8444   14.8951 O.2     1  UNL1       -0.2730
      7 N          63.1533   82.0621   12.8814 N.am    1  UNL1       -0.2569
      8 H          63.5307   78.8384   11.1382 H       1  UNL1        0.1237
      9 C          63.3088   83.2997   13.7148 C.ar    1  UNL1        0.0541
     10 C          64.6148   84.0374   13.7255 C.ar    1  UNL1        0.0180
     11 C          64.7704   85.2749   14.5588 C.ar    1  UNL1        0.0382
     12 C          63.6199   85.7747   15.3814 C.ar    1  UNL1        0.1386
     13 C          62.3139   85.0369   15.3707 C.ar    1  UNL1        0.0382
     14 C          62.1584   83.7994   14.5374 C.ar    1  UNL1        0.0180
     15 O          63.7754   87.0121   16.2147 O.3     1  UNL1       -0.4754
     16 C          64.0032   88.3386   15.5525 C.3     1  UNL1        0.2080
     17 C          63.2608   89.5519   16.0285 C.3     1  UNL1        0.0794
     18 C          63.9488   90.8842   16.0689 C.3     1  UNL1        0.1465
     19 O          64.0976   91.6899   14.8124 O.3     1  UNL1       -0.3488
     20 C          65.2196   91.3956   13.8613 C.3     1  UNL1        0.1716
     21 C          65.5946   92.3983   12.8106 C.ar    1  UNL1        0.0413
     22 C          65.3859   92.0784   11.3601 C.ar    1  UNL1        0.0012
     23 C          65.7610   93.0812   10.3094 C.ar    1  UNL1       -0.0000
     24 C          66.3447   94.4038   10.7093 C.ar    1  UNL1        0.0031
     25 C          66.5534   94.7237   12.1599 C.ar    1  UNL1        0.0367
     26 C          66.1784   93.7210   13.2105 C.ar    1  UNL1        0.1370
     27 O          66.3871   94.0409   14.6611 O.3     1  UNL1       -0.4717
     28 C          67.6587   93.6324   15.3438 C.3     1  UNL1        0.2525
     29 C          64.2543   83.2799   10.8677 C.3     1  UNL1        0.0837
     30 S          64.1222   83.5582    9.3997 S.3     1  UNL1       -0.1118
     31 N          61.0013   87.6277   10.2355 N.am    1  UNL1       -0.2529
     32 C          59.9574   88.5866    9.7448 C.2     1  UNL1        0.2739
     33 O          59.4409   89.6625   10.6534 O.2     1  UNL1       -0.2705
     34 C          59.4300   88.4695    8.3455 C.3     1  UNL1        0.2900
     35 O          59.9465   87.3936    7.4368 O.3     1  UNL1       -0.4643
     36 C          60.9905   86.4347    7.9275 C.ar    1  UNL1        0.1528
     37 C          61.5070   85.3588    7.0189 C.ar    1  UNL1        0.0387
     38 C          62.5509   84.4000    7.5096 C.ar    1  UNL1        0.0093
     39 C          63.0783   84.5170    8.9090 C.ar    1  UNL1        0.0267
     40 C          62.5618   85.5929    9.8176 C.ar    1  UNL1        0.0241
     41 C          61.5178   86.5518    9.3268 C.ar    1  UNL1        0.0886
     42 C          61.5287   87.7448   11.6348 C.3     1  UNL1        0.1010
     43 C          62.6744   88.6669   11.9298 C.3     1  UNL1        0.0539
     44 C          62.4095   90.0892   12.3263 C.3     1  UNL1        0.1440
     45 C          62.6833   90.8663    9.8623 C.3     1  UNL1        0.1741
     46 O          62.2538   91.1450   11.2722 O.3     1  UNL1       -0.3510
@<TRIPOS>BOND
     1    45    46    1
     2    46    44    1
     3    44    43    1
     4    43    42    1
     5    42    31    1
     6    31    32   am
     7    32    33    2
     8    32    34    1
     9    34    35    1
    10    35    36    1
    11    36    37   ar
    12    37    38   ar
    13    38    39   ar
    14    39    30    1
    15    30    29    1
    16     1    29    1
    17     1     2    1
    18     2     3    1
    19     3     4    1
    20     4     5    1
    21     5     6    2
    22     5     7   am
    23     7     9    1
    24     9    10   ar
    25    10    11   ar
    26    11    12   ar
    27    12    15    1
    28    15    16    1
    29    16    17    1
    30    17    18    1
    31    18    19    1
    32    19    20    1
    33    20    21    1
    34    21    22   ar
    35    22    23   ar
    36    23    24   ar
    37    24    25   ar
    38    25    26   ar
    39    26    27    1
    40    27    28    1
    41    12    13   ar
    42    13    14   ar
    43    39    40   ar
    44    40    41   ar
    45    41    31    1
    46    41    36   ar
    47     7     1    1
    48    14     9   ar
    49    26    21   ar
    50     3     8    1
