@<TRIPOS>MOLECULE
*****
 57 59 0 0 0
SMALL
GASTEIGER

@<TRIPOS>ATOM
      1 C          64.1655   89.7338   14.1544 C.3     1  UNL1        0.1027
      2 N          65.3284   90.6527   13.9233 N.am    1  UNL1       -0.3019
      3 C          65.4865   91.8873   14.7603 C.2     1  UNL1        0.2405
      4 O          64.4818   92.2031   15.8283 O.2     1  UNL1       -0.2733
      5 H          65.9878   90.4454   13.2223 H       1  UNL1        0.1495
      6 C          66.6494   92.8062   14.5292 C.3     1  UNL1        0.1509
      7 C          67.9687   92.5258   15.1854 C.3     1  UNL1        0.0251
      8 C          67.4393   93.0661   16.4807 C.3     1  UNL1        0.0021
      9 C          68.4982   91.9856   13.8902 C.3     1  UNL1        0.0021
     10 C          69.2882   92.2455   15.8416 C.3     1  UNL1        0.0021
     11 N          66.4929   94.0054   13.6420 N.am    1  UNL1       -0.2640
     12 C          66.1239   93.8277   12.1990 C.2     1  UNL1        0.4021
     13 O          65.9113   92.4508   11.6432 O.2     1  UNL1       -0.2264
     14 H          66.6324   94.9092   14.0067 H       1  UNL1        0.1532
     15 O          65.9674   95.0271   11.3117 O.3     1  UNL1       -0.4306
     16 C          66.8363   95.1811   10.0987 C.3     1  UNL1        0.2573
     17 C          63.0051   89.7390   13.2040 C.3     1  UNL1        0.1303
     18 O          61.6024   89.7894   13.7332 O.3     1  UNL1       -0.3827
     19 H          61.6233   89.8143   14.7027 H       1  UNL1        0.2104
     20 C          63.2473   89.6939   11.7244 C.3     1  UNL1        0.0508
     21 C          62.3470   88.8815   10.8415 C.3     1  UNL1        0.0784
     22 C          62.3890   86.3050   10.5098 C.2     1  UNL1        0.2404
     23 O          61.3607   86.1490   11.5906 O.2     1  UNL1       -0.2733
     24 N          62.8822   87.6712   10.1352 N.am    1  UNL1       -0.3042
     25 H          63.5572   87.7736    9.4259 H       1  UNL1        0.1494
     26 C          62.9243   85.0947    9.8035 C.3     1  UNL1        0.1509
     27 C          62.1630   85.0878    7.3195 C.2     1  UNL1        0.4021
     28 O          60.7359   84.9405    7.7573 O.2     1  UNL1       -0.2264
     29 N          63.2572   85.1649    8.3426 N.am    1  UNL1       -0.2640
     30 H          64.1938   85.2616    8.0552 H       1  UNL1        0.1532
     31 C          61.9472   84.1300    4.9141 C.3     1  UNL1        0.2573
     32 O          62.4958   85.1580    5.8586 O.3     1  UNL1       -0.4306
     33 C          63.1266   83.8143   10.5581 C.3     1  UNL1        0.0251
     34 C          61.8769   84.0799   11.3440 C.3     1  UNL1        0.0021
     35 C          64.3764   83.5486    9.7723 C.3     1  UNL1        0.0021
     36 C          63.3290   82.5338   11.3128 C.3     1  UNL1        0.0021
     37 C          60.9116   89.2793   10.6648 C.3     1  UNL1        0.0460
     38 C          60.1786   88.9057    9.4106 C.ar    1  UNL1       -0.0205
     39 C          60.1928   89.8307    8.2298 C.ar    1  UNL1       -0.0042
     40 C          59.4598   89.4570    6.9755 C.ar    1  UNL1       -0.0003
     41 C          58.7127   88.1584    6.9021 C.ar    1  UNL1       -0.0000
     42 C          58.6985   87.2334    8.0828 C.ar    1  UNL1       -0.0003
     43 C          59.4315   87.6070    9.3371 C.ar    1  UNL1       -0.0042
     44 C          64.1631   88.8096   15.3360 C.3     1  UNL1        0.0484
     45 C          63.8762   87.3497   15.1456 C.ar    1  UNL1       -0.0204
     46 C          63.2305   86.5624   16.2471 C.ar    1  UNL1       -0.0042
     47 C          62.9436   85.1024   16.0568 C.ar    1  UNL1       -0.0003
     48 C          63.3024   84.4297   14.7650 C.ar    1  UNL1        0.0015
     49 C          63.9482   85.2171   13.6635 C.ar    1  UNL1       -0.0003
     50 C          64.2351   86.6770   13.8538 C.ar    1  UNL1       -0.0042
     51 C          63.0155   82.9698   14.5747 C.ar    1  UNL1        0.0214
     52 C          64.1467   81.9891   14.4812 C.ar    1  UNL1        0.0990
     53 N          63.8598   80.5292   14.2909 N.ar    1  UNL1       -0.2400
     54 C          62.4418   80.0499   14.1940 C.ar    1  UNL1        0.1284
     55 C          61.3106   81.0305   14.2875 C.ar    1  UNL1        0.1592
     56 F          59.8925   80.5512   14.1907 F       1  UNL1       -0.2025
     57 C          61.5975   82.4905   14.4778 C.ar    1  UNL1        0.0328
@<TRIPOS>BOND
     1    31    32    1
     2    32    27    1
     3    27    28    2
     4    27    29   am
     5    26    29    1
     6    26    22    1
     7    22    23    2
     8    22    24   am
     9    24    21    1
    10    21    37    1
    11    37    38    1
    12    38    39   ar
    13    39    40   ar
    14    40    41   ar
    15    41    42   ar
    16    42    43   ar
    17    21    20    1
    18    20    17    1
    19    17    18    1
    20    17     1    1
    21     1    44    1
    22    44    45    1
    23    45    46   ar
    24    46    47   ar
    25    47    48   ar
    26    48    51    1
    27    51    52   ar
    28    52    53   ar
    29    53    54   ar
    30    54    55   ar
    31    55    56    1
    32    55    57   ar
    33    48    49   ar
    34    49    50   ar
    35     1     2    1
    36     2     3   am
    37     3     4    2
    38     3     6    1
    39     6    11    1
    40    11    12   am
    41    12    13    2
    42    12    15    1
    43    15    16    1
    44     6     7    1
    45     7     8    1
    46     7     9    1
    47     7    10    1
    48    26    33    1
    49    33    34    1
    50    33    35    1
    51    33    36    1
    52    43    38   ar
    53    50    45   ar
    54    57    51   ar
    55    29    30    1
    56    24    25    1
    57    18    19    1
    58     2     5    1
    59    11    14    1
@<TRIPOS>MOLECULE
*****
 57 59 0 0 0
SMALL
GASTEIGER

@<TRIPOS>ATOM
      1 C          61.7031   87.5000   11.7900 C.3     1  UNL1        0.1027
      2 N          62.5804   86.3529   12.1956 N.am    1  UNL1       -0.3019
      3 C          62.4468   85.0268   11.5076 C.2     1  UNL1        0.2405
      4 O          61.4359   84.8477   10.4140 O.2     1  UNL1       -0.2733
      5 H          63.2439   86.4704   12.9134 H       1  UNL1        0.1495
      6 C          63.3241   83.8796   11.9132 C.3     1  UNL1        0.1509
      7 C          63.7772   83.7489   13.3371 C.3     1  UNL1        0.0251
      8 C          62.3487   83.7748   13.7940 C.3     1  UNL1        0.0021
      9 C          65.2056   83.7230   12.8801 C.3     1  UNL1        0.0021
     10 C          64.2303   83.6181   14.7610 C.3     1  UNL1        0.0021
     11 N          63.7482   82.8633   10.8949 N.am    1  UNL1       -0.2640
     12 C          63.1762   81.4772   10.9352 C.2     1  UNL1        0.4021
     13 O          62.1799   81.1076   11.9939 O.2     1  UNL1       -0.2264
     14 H          64.4021   83.1059   10.2000 H       1  UNL1        0.1532
     15 O          63.6004   80.4608    9.9168 O.3     1  UNL1       -0.4306
     16 C          62.7651   79.2364    9.6862 C.3     1  UNL1        0.2573
     17 C          62.0500   88.8962   12.2147 C.3     1  UNL1        0.1303
     18 O          60.9702   89.8302   12.6750 O.3     1  UNL1       -0.3827
     19 H          60.1132   89.3774   12.6372 H       1  UNL1        0.2104
     20 C          63.4765   89.3583   12.1792 C.3     1  UNL1        0.0508
     21 C          64.0471   90.1204   13.3384 C.3     1  UNL1        0.0784
     22 C          65.3595   91.9483   12.0398 C.2     1  UNL1        0.2404
     23 O          64.1975   92.1198   11.1069 O.2     1  UNL1       -0.2733
     24 N          65.2843   90.9485   13.1555 N.am    1  UNL1       -0.3042
     25 H          66.0470   90.8360   13.7678 H       1  UNL1        0.1494
     26 C          66.5967   92.7764   11.8569 C.3     1  UNL1        0.1509
     27 C          67.1671   93.3738   14.3201 C.2     1  UNL1        0.4021
     28 O          65.7359   93.7535   14.5594 O.2     1  UNL1       -0.2264
     29 N          67.5976   92.8853   12.9688 N.am    1  UNL1       -0.2640
     30 H          68.5370   92.6360   12.8117 H       1  UNL1        0.1532
     31 C          68.7519   92.2418   16.0397 C.3     1  UNL1        0.2573
     32 O          68.1680   93.4826   15.4321 O.3     1  UNL1       -0.4306
     33 C          66.8331   93.4958   10.5620 C.3     1  UNL1        0.0251
     34 C          67.5849   92.3077   10.0392 C.3     1  UNL1        0.0021
     35 C          66.0813   94.6839   11.0848 C.3     1  UNL1        0.0021
     36 C          67.0695   94.2151    9.2671 C.3     1  UNL1        0.0021
     37 C          63.3805   90.0543   14.6805 C.3     1  UNL1        0.0460
     38 C          63.4298   88.7865   15.4808 C.ar    1  UNL1       -0.0205
     39 C          64.2011   87.6061   14.9692 C.ar    1  UNL1       -0.0042
     40 C          64.2504   86.3384   15.7695 C.ar    1  UNL1       -0.0003
     41 C          63.5284   86.2511   17.0814 C.ar    1  UNL1       -0.0000
     42 C          62.7571   87.4315   17.5930 C.ar    1  UNL1       -0.0003
     43 C          62.7078   88.6992   16.7927 C.ar    1  UNL1       -0.0042
     44 C          60.4790   87.2510   10.9596 C.3     1  UNL1        0.0484
     45 C          60.2280   88.0708    9.7289 C.ar    1  UNL1       -0.0204
     46 C          59.5173   87.4639    8.5556 C.ar    1  UNL1       -0.0042
     47 C          59.2663   88.2838    7.3247 C.ar    1  UNL1       -0.0003
     48 C          59.7260   89.7105    7.2672 C.ar    1  UNL1        0.0015
     49 C          60.4367   90.3173    8.4406 C.ar    1  UNL1       -0.0003
     50 C          60.6876   89.4975    9.6714 C.ar    1  UNL1       -0.0042
     51 C          59.4750   90.5303    6.0365 C.ar    1  UNL1        0.0214
     52 C          58.0746   90.9234    5.6698 C.ar    1  UNL1        0.0990
     53 N          57.8236   91.7432    4.4390 N.ar    1  UNL1       -0.2400
     54 C          58.9730   92.1700    3.5749 C.ar    1  UNL1        0.1284
     55 C          60.3734   91.7770    3.9415 C.ar    1  UNL1        0.1592
     56 F          61.5228   92.2038    3.0774 F       1  UNL1       -0.2025
     57 C          60.6244   90.9571    5.1723 C.ar    1  UNL1        0.0328
@<TRIPOS>BOND
     1    31    32    1
     2    32    27    1
     3    27    28    2
     4    27    29   am
     5    26    29    1
     6    26    22    1
     7    22    23    2
     8    22    24   am
     9    24    21    1
    10    21    37    1
    11    37    38    1
    12    38    39   ar
    13    39    40   ar
    14    40    41   ar
    15    41    42   ar
    16    42    43   ar
    17    21    20    1
    18    20    17    1
    19    17    18    1
    20    17     1    1
    21     1    44    1
    22    44    45    1
    23    45    46   ar
    24    46    47   ar
    25    47    48   ar
    26    48    51    1
    27    51    52   ar
    28    52    53   ar
    29    53    54   ar
    30    54    55   ar
    31    55    56    1
    32    55    57   ar
    33    48    49   ar
    34    49    50   ar
    35     1     2    1
    36     2     3   am
    37     3     4    2
    38     3     6    1
    39     6    11    1
    40    11    12   am
    41    12    13    2
    42    12    15    1
    43    15    16    1
    44     6     7    1
    45     7     8    1
    46     7     9    1
    47     7    10    1
    48    26    33    1
    49    33    34    1
    50    33    35    1
    51    33    36    1
    52    43    38   ar
    53    50    45   ar
    54    57    51   ar
    55    29    30    1
    56    24    25    1
    57    18    19    1
    58     2     5    1
    59    11    14    1
@<TRIPOS>MOLECULE
*****
 57 59 0 0 0
SMALL
GASTEIGER

@<TRIPOS>ATOM
      1 C          61.9686   86.9101   11.5427 C.3     1  UNL1        0.1027
      2 N          62.3733   85.9411   12.6138 N.am    1  UNL1       -0.3019
      3 C          62.4784   84.4779   12.3008 C.2     1  UNL1        0.2405
      4 O          62.1788   83.9837   10.9166 O.2     1  UNL1       -0.2733
      5 H          62.5700   86.2655   13.5223 H       1  UNL1        0.1495
      6 C          62.8831   83.5090   13.3719 C.3     1  UNL1        0.1509
      7 C          64.2613   83.5741   13.9603 C.3     1  UNL1        0.0251
      8 C          64.8450   83.6749   12.5823 C.3     1  UNL1        0.0021
      9 C          63.6777   83.4733   15.3384 C.3     1  UNL1        0.0021
     10 C          65.6396   83.6392   14.5489 C.3     1  UNL1        0.0021
     11 N          61.9097   82.4749   13.8545 N.am    1  UNL1       -0.2640
     12 C          61.9744   81.0756   13.3180 C.2     1  UNL1        0.4021
     13 O          63.0126   80.7104   12.2988 O.2     1  UNL1       -0.2264
     14 H          61.2283   82.7145   14.5235 H       1  UNL1        0.1532
     15 O          61.0009   80.0415   13.8007 O.3     1  UNL1       -0.4306
     16 C          59.6095   80.4450   14.1897 C.3     1  UNL1        0.2573
     17 C          61.9467   88.3817   11.8319 C.3     1  UNL1        0.1303
     18 O          60.6657   89.0469   12.2400 O.3     1  UNL1       -0.3827
     19 H          59.9541   88.3884   12.2680 H       1  UNL1        0.2104
     20 C          63.2059   89.1882   11.7131 C.3     1  UNL1        0.0508
     21 C          63.6150   90.1083   12.8249 C.3     1  UNL1        0.0784
     22 C          65.2598   91.8872   13.7630 C.2     1  UNL1        0.2404
     23 O          64.7228   91.6554   15.1442 O.2     1  UNL1       -0.2733
     24 N          64.7058   91.1137   12.6033 N.am    1  UNL1       -0.3042
     25 H          65.0583   91.2659   11.6967 H       1  UNL1        0.1494
     26 C          66.3507   92.8927   13.5413 C.3     1  UNL1        0.1509
     27 C          66.1846   93.9038   11.1539 C.2     1  UNL1        0.4021
     28 O          66.4917   92.5597   10.5633 O.2     1  UNL1       -0.2264
     29 N          66.1140   94.0703   12.6429 N.am    1  UNL1       -0.2640
     30 H          65.9124   94.9526   13.0306 H       1  UNL1        0.1532
     31 C          66.9484   95.4270    9.1927 C.3     1  UNL1        0.2573
     32 O          65.9479   95.0815   10.2555 O.3     1  UNL1       -0.4306
     33 C          67.6782   92.7204   14.2181 C.3     1  UNL1        0.0251
     34 C          67.3155   93.7925   15.2025 C.3     1  UNL1        0.0021
     35 C          68.0409   91.6483   13.2337 C.3     1  UNL1        0.0021
     36 C          69.0057   92.5482   14.8948 C.3     1  UNL1        0.0021
     37 C          62.9332   90.0230   14.1582 C.3     1  UNL1        0.0460
     38 C          63.2239   88.8735   15.0770 C.ar    1  UNL1       -0.0205
     39 C          62.5511   88.7945   16.4154 C.ar    1  UNL1       -0.0042
     40 C          62.8418   87.6449   17.3342 C.ar    1  UNL1       -0.0003
     41 C          63.8052   86.5746   16.9147 C.ar    1  UNL1       -0.0000
     42 C          64.4780   86.6536   15.5763 C.ar    1  UNL1       -0.0003
     43 C          64.1873   87.8031   14.6575 C.ar    1  UNL1       -0.0042
     44 C          61.5857   86.4073   10.1822 C.3     1  UNL1        0.0484
     45 C          60.9069   87.3235    9.2077 C.ar    1  UNL1       -0.0204
     46 C          60.0257   86.7567    8.1343 C.ar    1  UNL1       -0.0042
     47 C          59.3469   87.6730    7.1597 C.ar    1  UNL1       -0.0003
     48 C          59.5493   89.1560    7.2586 C.ar    1  UNL1        0.0015
     49 C          60.4305   89.7227    8.3321 C.ar    1  UNL1       -0.0003
     50 C          61.1093   88.8065    9.3066 C.ar    1  UNL1       -0.0042
     51 C          58.8705   90.0722    6.2841 C.ar    1  UNL1        0.0214
     52 C          57.3762   90.0543    6.1537 C.ar    1  UNL1        0.0990
     53 N          56.6974   90.9705    5.1791 N.ar    1  UNL1       -0.2400
     54 C          57.5128   91.9046    4.3350 C.ar    1  UNL1        0.1284
     55 C          59.0070   91.9225    4.4654 C.ar    1  UNL1        0.1592
     56 F          59.8223   92.8567    3.6212 F       1  UNL1       -0.2025
     57 C          59.6858   91.0063    5.4399 C.ar    1  UNL1        0.0328
@<TRIPOS>BOND
     1    31    32    1
     2    32    27    1
     3    27    28    2
     4    27    29   am
     5    26    29    1
     6    26    22    1
     7    22    23    2
     8    22    24   am
     9    24    21    1
    10    21    37    1
    11    37    38    1
    12    38    39   ar
    13    39    40   ar
    14    40    41   ar
    15    41    42   ar
    16    42    43   ar
    17    21    20    1
    18    20    17    1
    19    17    18    1
    20    17     1    1
    21     1    44    1
    22    44    45    1
    23    45    46   ar
    24    46    47   ar
    25    47    48   ar
    26    48    51    1
    27    51    52   ar
    28    52    53   ar
    29    53    54   ar
    30    54    55   ar
    31    55    56    1
    32    55    57   ar
    33    48    49   ar
    34    49    50   ar
    35     1     2    1
    36     2     3   am
    37     3     4    2
    38     3     6    1
    39     6    11    1
    40    11    12   am
    41    12    13    2
    42    12    15    1
    43    15    16    1
    44     6     7    1
    45     7     8    1
    46     7     9    1
    47     7    10    1
    48    26    33    1
    49    33    34    1
    50    33    35    1
    51    33    36    1
    52    43    38   ar
    53    50    45   ar
    54    57    51   ar
    55    29    30    1
    56    24    25    1
    57    18    19    1
    58     2     5    1
    59    11    14    1
@<TRIPOS>MOLECULE
*****
 57 59 0 0 0
SMALL
GASTEIGER

@<TRIPOS>ATOM
      1 C          64.2332   89.2281   14.9265 C.3     1  UNL1        0.1027
      2 N          65.1789   90.3870   15.0384 N.am    1  UNL1       -0.3019
      3 C          65.3008   91.3673   13.9096 C.2     1  UNL1        0.2405
      4 O          64.4769   91.1886   12.6689 O.2     1  UNL1       -0.2733
      5 H          65.7196   90.5043   15.8527 H       1  UNL1        0.1495
      6 C          66.2464   92.5262   14.0215 C.3     1  UNL1        0.1509
      7 C          67.4948   92.3990   14.8432 C.3     1  UNL1        0.0251
      8 C          66.8018   93.0590   15.9982 C.3     1  UNL1        0.0021
      9 C          68.1878   91.7389   13.6882 C.3     1  UNL1        0.0021
     10 C          68.7433   92.2717   15.6650 C.3     1  UNL1        0.0021
     11 N          65.9437   93.8124   13.3116 N.am    1  UNL1       -0.2640
     12 C          66.2176   93.9407   11.8424 C.2     1  UNL1        0.4021
     13 O          66.7942   92.7827   11.0830 O.2     1  UNL1       -0.2264
     14 H          65.5653   94.5725   13.8099 H       1  UNL1        0.1532
     15 O          65.9149   95.2270   11.1325 O.3     1  UNL1       -0.4306
     16 C          66.7030   95.6163    9.9170 C.3     1  UNL1        0.2573
     17 C          63.3315   89.1083   13.7338 C.3     1  UNL1        0.1303
     18 O          62.1664   90.0400   13.5779 O.3     1  UNL1       -0.3827
     19 H          62.1399   90.6531   14.3290 H       1  UNL1        0.2104
     20 C          63.5950   88.0568   12.6971 C.3     1  UNL1        0.0508
     21 C          62.4598   87.2455   12.1462 C.3     1  UNL1        0.0784
     22 C          61.5023   88.4680   10.0632 C.2     1  UNL1        0.2404
     23 O          62.8260   88.3269    9.3719 O.2     1  UNL1       -0.2733
     24 N          61.3193   87.9273   11.4503 N.am    1  UNL1       -0.3042
     25 H          60.4505   88.0199   11.9041 H       1  UNL1        0.1494
     26 C          60.3617   89.1498    9.3674 C.3     1  UNL1        0.1509
     27 C          59.4270   90.7374   11.1992 C.2     1  UNL1        0.4021
     28 O          59.3600   89.5882   12.1609 O.2     1  UNL1       -0.2264
     29 N          59.9279   90.5181    9.8024 N.am    1  UNL1       -0.2640
     30 H          59.9719   91.2724    9.1712 H       1  UNL1        0.1532
     31 C          57.5463   92.4936   11.5577 C.3     1  UNL1        0.2573
     32 O          58.9932   92.1058   11.6343 O.3     1  UNL1       -0.4306
     33 C          59.6548   88.4631    8.2365 C.3     1  UNL1        0.0251
     34 C          59.5159   87.2266    9.0742 C.3     1  UNL1        0.0021
     35 C          59.7938   89.6996    7.3988 C.3     1  UNL1        0.0021
     36 C          58.9480   87.7764    7.1056 C.3     1  UNL1        0.0021
     37 C          62.4653   85.7526   12.2912 C.3     1  UNL1        0.0460
     38 C          62.9776   84.8925   11.1742 C.ar    1  UNL1       -0.0205
     39 C          63.7396   83.6378   11.4827 C.ar    1  UNL1       -0.0042
     40 C          64.2520   82.7777   10.3656 C.ar    1  UNL1       -0.0003
     41 C          64.0022   83.1722    8.9401 C.ar    1  UNL1       -0.0000
     42 C          63.2402   84.4269    8.6317 C.ar    1  UNL1       -0.0003
     43 C          62.7279   85.2870    9.7486 C.ar    1  UNL1       -0.0042
     44 C          64.1893   88.1889   16.0074 C.3     1  UNL1        0.0484
     45 C          63.8673   86.7643   15.6655 C.ar    1  UNL1       -0.0204
     46 C          64.8724   85.9223   14.9370 C.ar    1  UNL1       -0.0042
     47 C          64.5505   84.4977   14.5951 C.ar    1  UNL1       -0.0003
     48 C          63.2234   83.9151   14.9818 C.ar    1  UNL1        0.0015
     49 C          62.2183   84.7572   15.7103 C.ar    1  UNL1       -0.0003
     50 C          62.5403   86.1817   16.0522 C.ar    1  UNL1       -0.0042
     51 C          62.9014   82.4905   14.6399 C.ar    1  UNL1        0.0214
     52 C          64.0092   81.5098   14.3926 C.ar    1  UNL1        0.0990
     53 N          63.6872   80.0852   14.0508 N.ar    1  UNL1       -0.2400
     54 C          62.2575   79.6413   13.9562 C.ar    1  UNL1        0.1284
     55 C          61.1498   80.6220   14.2035 C.ar    1  UNL1        0.1592
     56 F          59.7201   80.1781   14.1089 F       1  UNL1       -0.2025
     57 C          61.4718   82.0466   14.5454 C.ar    1  UNL1        0.0328
@<TRIPOS>BOND
     1    31    32    1
     2    32    27    1
     3    27    28    2
     4    27    29   am
     5    26    29    1
     6    26    22    1
     7    22    23    2
     8    22    24   am
     9    24    21    1
    10    21    37    1
    11    37    38    1
    12    38    39   ar
    13    39    40   ar
    14    40    41   ar
    15    41    42   ar
    16    42    43   ar
    17    21    20    1
    18    20    17    1
    19    17    18    1
    20    17     1    1
    21     1    44    1
    22    44    45    1
    23    45    46   ar
    24    46    47   ar
    25    47    48   ar
    26    48    51    1
    27    51    52   ar
    28    52    53   ar
    29    53    54   ar
    30    54    55   ar
    31    55    56    1
    32    55    57   ar
    33    48    49   ar
    34    49    50   ar
    35     1     2    1
    36     2     3   am
    37     3     4    2
    38     3     6    1
    39     6    11    1
    40    11    12   am
    41    12    13    2
    42    12    15    1
    43    15    16    1
    44     6     7    1
    45     7     8    1
    46     7     9    1
    47     7    10    1
    48    26    33    1
    49    33    34    1
    50    33    35    1
    51    33    36    1
    52    43    38   ar
    53    50    45   ar
    54    57    51   ar
    55    29    30    1
    56    24    25    1
    57    18    19    1
    58     2     5    1
    59    11    14    1
@<TRIPOS>MOLECULE
*****
 57 59 0 0 0
SMALL
GASTEIGER

@<TRIPOS>ATOM
      1 C          61.5584   89.2768   10.4972 C.3     1  UNL1        0.1027
      2 N          61.2206   89.1070    9.0456 N.am    1  UNL1       -0.3019
      3 C          59.8537   88.6382    8.6435 C.2     1  UNL1        0.2405
      4 O          58.8246   88.3392    9.6930 O.2     1  UNL1       -0.2733
      5 H          61.8961   89.3032    8.3568 H       1  UNL1        0.1495
      6 C          59.5159   88.4683    7.1920 C.3     1  UNL1        0.1509
      7 C          59.1561   89.6639    6.3608 C.3     1  UNL1        0.0251
      8 C          57.7031   89.4257    6.6471 C.3     1  UNL1        0.0021
      9 C          60.6091   89.9021    6.0744 C.3     1  UNL1        0.0021
     10 C          58.7963   90.8596    5.5295 C.3     1  UNL1        0.0021
     11 N          59.5379   87.1028    6.5716 N.am    1  UNL1       -0.2640
     12 C          60.3701   86.0147    7.1828 C.2     1  UNL1        0.4021
     13 O          61.1802   86.2921    8.4143 O.2     1  UNL1       -0.2264
     14 H          59.0062   86.9207    5.7633 H       1  UNL1        0.1532
     15 O          60.3921   84.6491    6.5624 O.3     1  UNL1       -0.4306
     16 C          61.6063   84.1850    5.8138 C.3     1  UNL1        0.2573
     17 C          61.7905   88.0715   11.3593 C.3     1  UNL1        0.1303
     18 O          60.7205   87.0290   11.4947 O.3     1  UNL1       -0.3827
     19 H          59.9498   87.2860   10.9647 H       1  UNL1        0.2104
     20 C          63.0925   87.9086   12.0859 C.3     1  UNL1        0.0508
     21 C          63.4015   86.6218   12.7921 C.3     1  UNL1        0.0784
     22 C          63.4828   84.0336   12.5815 C.2     1  UNL1        0.2404
     23 O          64.7817   84.0133   13.3313 O.2     1  UNL1       -0.2733
     24 N          62.7927   85.3378   12.3119 N.am    1  UNL1       -0.3042
     25 H          61.9401   85.3511   11.8197 H       1  UNL1        0.1494
     26 C          62.8739   82.7495   12.1012 C.3     1  UNL1        0.1509
     27 C          61.9600   81.3793   14.1104 C.2     1  UNL1        0.4021
     28 O          63.3555   81.2208   14.6371 O.2     1  UNL1       -0.2264
     29 N          61.7192   82.1437   12.8425 N.am    1  UNL1       -0.2640
     30 H          60.8032   82.2477   12.4968 H       1  UNL1        0.1532
     31 C          59.5805   80.3360   14.1042 C.3     1  UNL1        0.2573
     32 O          60.8052   80.7734   14.8517 O.3     1  UNL1       -0.4306
     33 C          63.4198   82.0714   10.8797 C.3     1  UNL1        0.0251
     34 C          62.8821   80.7590   11.3679 C.3     1  UNL1        0.0021
     35 C          63.9575   83.3838   10.3914 C.3     1  UNL1        0.0021
     36 C          63.9657   81.3933    9.6581 C.3     1  UNL1        0.0021
     37 C          64.3193   86.6190   13.9786 C.3     1  UNL1        0.0460
     38 C          63.7658   86.8375   15.3554 C.ar    1  UNL1       -0.0205
     39 C          63.3862   85.6621   16.2065 C.ar    1  UNL1       -0.0042
     40 C          62.8327   85.8807   17.5834 C.ar    1  UNL1       -0.0003
     41 C          62.6587   87.2746   18.1093 C.ar    1  UNL1       -0.0000
     42 C          63.0383   88.4501   17.2582 C.ar    1  UNL1       -0.0003
     43 C          63.5918   88.2316   15.8813 C.ar    1  UNL1       -0.0042
     44 C          61.6641   90.6522   11.0867 C.3     1  UNL1        0.0484
     45 C          62.8732   91.0337   11.8882 C.ar    1  UNL1       -0.0204
     46 C          62.9190   90.7456   13.3595 C.ar    1  UNL1       -0.0042
     47 C          64.1282   91.1272   14.1612 C.ar    1  UNL1       -0.0003
     48 C          65.2914   91.7968   13.4914 C.ar    1  UNL1        0.0015
     49 C          65.2454   92.0848   12.0200 C.ar    1  UNL1       -0.0003
     50 C          64.0364   91.7033   11.2184 C.ar    1  UNL1       -0.0042
     51 C          66.5004   92.1783   14.2929 C.ar    1  UNL1        0.0214
     52 C          66.3380   92.7366   15.6757 C.ar    1  UNL1        0.0990
     53 N          67.5471   93.1181   16.4773 N.ar    1  UNL1       -0.2400
     54 C          68.9186   92.9414   15.8961 C.ar    1  UNL1        0.1284
     55 C          69.0810   92.3832   14.5134 C.ar    1  UNL1        0.1592
     56 F          70.4525   92.2064   13.9323 F       1  UNL1       -0.2025
     57 C          67.8719   92.0016   13.7118 C.ar    1  UNL1        0.0328
@<TRIPOS>BOND
     1    31    32    1
     2    32    27    1
     3    27    28    2
     4    27    29   am
     5    26    29    1
     6    26    22    1
     7    22    23    2
     8    22    24   am
     9    24    21    1
    10    21    37    1
    11    37    38    1
    12    38    39   ar
    13    39    40   ar
    14    40    41   ar
    15    41    42   ar
    16    42    43   ar
    17    21    20    1
    18    20    17    1
    19    17    18    1
    20    17     1    1
    21     1    44    1
    22    44    45    1
    23    45    46   ar
    24    46    47   ar
    25    47    48   ar
    26    48    51    1
    27    51    52   ar
    28    52    53   ar
    29    53    54   ar
    30    54    55   ar
    31    55    56    1
    32    55    57   ar
    33    48    49   ar
    34    49    50   ar
    35     1     2    1
    36     2     3   am
    37     3     4    2
    38     3     6    1
    39     6    11    1
    40    11    12   am
    41    12    13    2
    42    12    15    1
    43    15    16    1
    44     6     7    1
    45     7     8    1
    46     7     9    1
    47     7    10    1
    48    26    33    1
    49    33    34    1
    50    33    35    1
    51    33    36    1
    52    43    38   ar
    53    50    45   ar
    54    57    51   ar
    55    29    30    1
    56    24    25    1
    57    18    19    1
    58     2     5    1
    59    11    14    1
@<TRIPOS>MOLECULE
*****
 57 59 0 0 0
SMALL
GASTEIGER

@<TRIPOS>ATOM
      1 C          62.0470   89.9861   10.4095 C.3     1  UNL1        0.1027
      2 N          61.4242   89.3907    9.1816 N.am    1  UNL1       -0.3019
      3 C          60.2085   88.5207    9.3039 C.2     1  UNL1        0.2405
      4 O          59.6156   88.2460   10.6540 O.2     1  UNL1       -0.2733
      5 H          61.8134   89.5710    8.2954 H       1  UNL1        0.1495
      6 C          59.5858   87.9253    8.0760 C.3     1  UNL1        0.1509
      7 C          59.9742   86.5463    7.6314 C.3     1  UNL1        0.0251
      8 C          61.4198   86.8849    7.8444 C.3     1  UNL1        0.0021
      9 C          58.5285   86.2078    7.4184 C.3     1  UNL1        0.0021
     10 C          60.3626   85.1673    7.1868 C.3     1  UNL1        0.0021
     11 N          58.5746   88.7088    7.2927 N.am    1  UNL1       -0.2640
     12 C          59.0280   89.7471    6.3097 C.2     1  UNL1        0.4021
     13 O          60.4927   90.0019    6.1100 O.2     1  UNL1       -0.2264
     14 H          57.6133   88.5415    7.4238 H       1  UNL1        0.1532
     15 O          58.0168   90.5306    5.5264 O.3     1  UNL1       -0.4306
     16 C          58.4497   91.7189    4.7199 C.3     1  UNL1        0.2573
     17 C          62.0427   89.2203   11.6992 C.3     1  UNL1        0.1303
     18 O          61.0714   89.5827   12.7834 O.3     1  UNL1       -0.3827
     19 H          60.5232   90.3274   12.4907 H       1  UNL1        0.2104
     20 C          63.0096   88.0922   11.9048 C.3     1  UNL1        0.0508
     21 C          62.5216   86.6739   11.8896 C.3     1  UNL1        0.0784
     22 C          63.0610   85.6192   14.2019 C.2     1  UNL1        0.2404
     23 O          64.5233   85.8608   13.9709 O.2     1  UNL1       -0.2733
     24 N          62.0602   86.0258   13.1612 N.am    1  UNL1       -0.3042
     25 H          61.1004   85.8673   13.3128 H       1  UNL1        0.1494
     26 C          62.5995   84.9711   15.4735 C.3     1  UNL1        0.1509
     27 C          62.8412   82.4725   14.8043 C.2     1  UNL1        0.4021
     28 O          64.1756   82.7672   14.1858 O.2     1  UNL1       -0.2264
     29 N          62.0532   83.5745   15.4481 N.am    1  UNL1       -0.2640
     30 H          61.1773   83.3810   15.8541 H       1  UNL1        0.1532
     31 C          60.9467   80.8085   14.1779 C.3     1  UNL1        0.2573
     32 O          62.2948   81.0757   14.7789 O.3     1  UNL1       -0.4306
     33 C          62.6845   85.7198   16.7706 C.3     1  UNL1        0.0251
     34 C          61.2274   86.0613   16.6689 C.3     1  UNL1        0.0021
     35 C          64.1415   85.3783   16.8723 C.3     1  UNL1        0.0021
     36 C          62.7694   86.4685   18.0676 C.3     1  UNL1        0.0021
     37 C          62.4950   85.9036   10.6027 C.3     1  UNL1        0.0460
     38 C          62.9183   84.4648   10.5809 C.ar    1  UNL1       -0.0205
     39 C          64.0623   84.0327    9.7123 C.ar    1  UNL1       -0.0042
     40 C          64.4856   82.5937    9.6906 C.ar    1  UNL1       -0.0003
     41 C          63.7649   81.5871   10.5373 C.ar    1  UNL1       -0.0000
     42 C          62.6209   82.0192   11.4059 C.ar    1  UNL1       -0.0003
     43 C          62.1976   83.4580   11.4277 C.ar    1  UNL1       -0.0042
     44 C          62.6741   91.3474   10.3475 C.3     1  UNL1        0.0484
     45 C          63.8913   91.6505   11.1699 C.ar    1  UNL1       -0.0204
     46 C          65.0830   92.3024   10.5337 C.ar    1  UNL1       -0.0042
     47 C          66.3003   92.6056   11.3561 C.ar    1  UNL1       -0.0003
     48 C          66.3259   92.2568   12.8148 C.ar    1  UNL1        0.0015
     49 C          65.1341   91.6049   13.4510 C.ar    1  UNL1       -0.0003
     50 C          63.9168   91.3018   12.6286 C.ar    1  UNL1       -0.0042
     51 C          67.5431   92.5600   13.6372 C.ar    1  UNL1        0.0214
     52 C          68.8525   91.9061   13.3082 C.ar    1  UNL1        0.0990
     53 N          70.0697   92.2092   14.1306 N.ar    1  UNL1       -0.2400
     54 C          69.9777   93.1662   15.2820 C.ar    1  UNL1        0.1284
     55 C          68.6684   93.8201   15.6110 C.ar    1  UNL1        0.1592
     56 F          68.5764   94.7771   16.7624 F       1  UNL1       -0.2025
     57 C          67.4511   93.5170   14.7886 C.ar    1  UNL1        0.0328
@<TRIPOS>BOND
     1    31    32    1
     2    32    27    1
     3    27    28    2
     4    27    29   am
     5    26    29    1
     6    26    22    1
     7    22    23    2
     8    22    24   am
     9    24    21    1
    10    21    37    1
    11    37    38    1
    12    38    39   ar
    13    39    40   ar
    14    40    41   ar
    15    41    42   ar
    16    42    43   ar
    17    21    20    1
    18    20    17    1
    19    17    18    1
    20    17     1    1
    21     1    44    1
    22    44    45    1
    23    45    46   ar
    24    46    47   ar
    25    47    48   ar
    26    48    51    1
    27    51    52   ar
    28    52    53   ar
    29    53    54   ar
    30    54    55   ar
    31    55    56    1
    32    55    57   ar
    33    48    49   ar
    34    49    50   ar
    35     1     2    1
    36     2     3   am
    37     3     4    2
    38     3     6    1
    39     6    11    1
    40    11    12   am
    41    12    13    2
    42    12    15    1
    43    15    16    1
    44     6     7    1
    45     7     8    1
    46     7     9    1
    47     7    10    1
    48    26    33    1
    49    33    34    1
    50    33    35    1
    51    33    36    1
    52    43    38   ar
    53    50    45   ar
    54    57    51   ar
    55    29    30    1
    56    24    25    1
    57    18    19    1
    58     2     5    1
    59    11    14    1
@<TRIPOS>MOLECULE
*****
 57 59 0 0 0
SMALL
GASTEIGER

@<TRIPOS>ATOM
      1 C          64.3743   89.0272   14.7910 C.3     1  UNL1        0.1027
      2 N          65.2525   90.2255   14.9977 N.am    1  UNL1       -0.3019
      3 C          65.4406   91.2177   13.8886 C.2     1  UNL1        0.2405
      4 O          64.7504   91.0116   12.5729 O.2     1  UNL1       -0.2733
      5 H          65.7055   90.3608   15.8612 H       1  UNL1        0.1495
      6 C          66.3188   92.4161   14.0952 C.3     1  UNL1        0.1509
      7 C          67.5332   92.3141   14.9697 C.3     1  UNL1        0.0251
      8 C          66.7803   92.9662   16.0913 C.3     1  UNL1        0.0021
      9 C          68.2860   91.6621   13.8481 C.3     1  UNL1        0.0021
     10 C          68.7477   92.2121   15.8442 C.3     1  UNL1        0.0021
     11 N          65.9826   93.7164   13.4274 N.am    1  UNL1       -0.2640
     12 C          66.3947   93.9579   12.0055 C.2     1  UNL1        0.4021
     13 O          67.1431   92.8990   11.2514 O.2     1  UNL1       -0.2264
     14 H          65.4914   94.4114   13.9223 H       1  UNL1        0.1532
     15 O          66.0584   95.2583   11.3377 O.3     1  UNL1       -0.4306
     16 C          66.6743   95.6029   10.0140 C.3     1  UNL1        0.2573
     17 C          63.5299   88.9202   13.5559 C.3     1  UNL1        0.1303
     18 O          62.4052   89.8867   13.3302 O.3     1  UNL1       -0.3827
     19 H          62.3614   90.5106   14.0717 H       1  UNL1        0.2104
     20 C          63.8102   87.8466   12.5465 C.3     1  UNL1        0.0508
     21 C          62.6797   87.2161   11.7886 C.3     1  UNL1        0.0784
     22 C          61.3074   88.9992   10.4896 C.2     1  UNL1        0.2404
     23 O          62.4906   89.2674    9.6076 O.2     1  UNL1       -0.2733
     24 N          61.4019   87.9736   11.5801 N.am    1  UNL1       -0.3042
     25 H          60.6253   87.7976   12.1590 H       1  UNL1        0.1494
     26 C          60.0295   89.7567   10.2811 C.3     1  UNL1        0.1509
     27 C          59.2709   89.5786    7.8028 C.2     1  UNL1        0.4021
     28 O          59.0714   88.1014    7.9700 O.2     1  UNL1       -0.2264
     29 N          59.7500   90.4063    8.9584 N.am    1  UNL1       -0.2640
     30 H          59.8809   91.3758    8.8486 H       1  UNL1        0.1532
     31 C          60.1008   90.4193    5.4888 C.3     1  UNL1        0.2573
     32 O          58.9913   90.2282    6.4799 O.3     1  UNL1       -0.4306
     33 C          59.0313   89.8645   11.3955 C.3     1  UNL1        0.0251
     34 C          59.1165   91.3605   11.3271 C.3     1  UNL1        0.0021
     35 C          58.9461   88.3685   11.4640 C.3     1  UNL1        0.0021
     36 C          58.0330   89.9724   12.5099 C.3     1  UNL1        0.0021
     37 C          62.8270   85.8282   11.2391 C.3     1  UNL1        0.0460
     38 C          62.4454   85.5399    9.8175 C.ar    1  UNL1       -0.0205
     39 C          63.4259   84.8743    8.8979 C.ar    1  UNL1       -0.0042
     40 C          63.0443   84.5860    7.4762 C.ar    1  UNL1       -0.0003
     41 C          61.6822   84.9634    6.9740 C.ar    1  UNL1       -0.0000
     42 C          60.7016   85.6290    7.8935 C.ar    1  UNL1       -0.0003
     43 C          61.0832   85.9173    9.3152 C.ar    1  UNL1       -0.0042
     44 C          64.3405   87.9358   15.8196 C.3     1  UNL1        0.0484
     45 C          63.9542   86.5421   15.4218 C.ar    1  UNL1       -0.0204
     46 C          64.8807   85.7194   14.5764 C.ar    1  UNL1       -0.0042
     47 C          64.4944   84.3256   14.1786 C.ar    1  UNL1       -0.0003
     48 C          63.1816   83.7545   14.6262 C.ar    1  UNL1        0.0015
     49 C          62.2551   84.5773   15.4717 C.ar    1  UNL1       -0.0003
     50 C          62.6414   85.9710   15.8695 C.ar    1  UNL1       -0.0042
     51 C          62.7953   82.3608   14.2285 C.ar    1  UNL1        0.0214
     52 C          63.8088   81.4529   13.5969 C.ar    1  UNL1        0.0990
     53 N          63.4224   80.0592   13.1991 N.ar    1  UNL1       -0.2400
     54 C          62.0227   79.5733   13.4329 C.ar    1  UNL1        0.1284
     55 C          61.0093   80.4810   14.0645 C.ar    1  UNL1        0.1592
     56 F          59.6096   79.9951   14.2983 F       1  UNL1       -0.2025
     57 C          61.3956   81.8749   14.4623 C.ar    1  UNL1        0.0328
@<TRIPOS>BOND
     1    31    32    1
     2    32    27    1
     3    27    28    2
     4    27    29   am
     5    26    29    1
     6    26    22    1
     7    22    23    2
     8    22    24   am
     9    24    21    1
    10    21    37    1
    11    37    38    1
    12    38    39   ar
    13    39    40   ar
    14    40    41   ar
    15    41    42   ar
    16    42    43   ar
    17    21    20    1
    18    20    17    1
    19    17    18    1
    20    17     1    1
    21     1    44    1
    22    44    45    1
    23    45    46   ar
    24    46    47   ar
    25    47    48   ar
    26    48    51    1
    27    51    52   ar
    28    52    53   ar
    29    53    54   ar
    30    54    55   ar
    31    55    56    1
    32    55    57   ar
    33    48    49   ar
    34    49    50   ar
    35     1     2    1
    36     2     3   am
    37     3     4    2
    38     3     6    1
    39     6    11    1
    40    11    12   am
    41    12    13    2
    42    12    15    1
    43    15    16    1
    44     6     7    1
    45     7     8    1
    46     7     9    1
    47     7    10    1
    48    26    33    1
    49    33    34    1
    50    33    35    1
    51    33    36    1
    52    43    38   ar
    53    50    45   ar
    54    57    51   ar
    55    29    30    1
    56    24    25    1
    57    18    19    1
    58     2     5    1
    59    11    14    1
@<TRIPOS>MOLECULE
*****
 57 59 0 0 0
SMALL
GASTEIGER

@<TRIPOS>ATOM
      1 C          61.5986   89.0472   10.7648 C.3     1  UNL1        0.1027
      2 N          61.1513   88.5739    9.4135 N.am    1  UNL1       -0.3019
      3 C          60.7621   87.1393    9.2123 C.2     1  UNL1        0.2405
      4 O          60.8202   86.1781   10.3623 O.2     1  UNL1       -0.2733
      5 H          61.1131   89.2048    8.6587 H       1  UNL1        0.1495
      6 C          60.3147   86.6660    7.8611 C.3     1  UNL1        0.1509
      7 C          61.0430   85.5456    7.1799 C.3     1  UNL1        0.0251
      8 C          62.2958   85.9100    7.9198 C.3     1  UNL1        0.0021
      9 C          59.7902   85.1811    6.4400 C.3     1  UNL1        0.0021
     10 C          61.7713   84.4250    6.4986 C.3     1  UNL1        0.0021
     11 N          59.1391   87.3131    7.1911 N.am    1  UNL1       -0.2640
     12 C          59.1850   88.7705    6.8391 C.2     1  UNL1        0.4021
     13 O          60.4065   89.5808    7.1571 O.2     1  UNL1       -0.2264
     14 H          58.3373   86.7814    6.9823 H       1  UNL1        0.1532
     15 O          58.0092   89.4177    6.1690 O.3     1  UNL1       -0.4306
     16 C          58.1333   90.8049    5.6120 C.3     1  UNL1        0.2573
     17 C          61.8060   88.0597   11.8746 C.3     1  UNL1        0.1303
     18 O          60.6233   87.4641   12.5793 O.3     1  UNL1       -0.3827
     19 H          59.8061   87.8214   12.1979 H       1  UNL1        0.2104
     20 C          63.1960   87.6677   12.2798 C.3     1  UNL1        0.0508
     21 C          63.4360   86.3530   12.9609 C.3     1  UNL1        0.0784
     22 C          63.4471   83.7703   12.6790 C.2     1  UNL1        0.2404
     23 O          64.7138   83.6884   13.4781 O.2     1  UNL1       -0.2733
     24 N          62.8082   85.1026   12.4204 N.am    1  UNL1       -0.3042
     25 H          61.9768   85.1563   11.8960 H       1  UNL1        0.1494
     26 C          62.8191   82.5199   12.1384 C.3     1  UNL1        0.1509
     27 C          61.8813   81.0343   14.0524 C.2     1  UNL1        0.4021
     28 O          63.2764   80.7904   14.5467 O.2     1  UNL1       -0.2264
     29 N          61.6527   81.8990   12.8483 N.am    1  UNL1       -0.2640
     30 H          60.7371   82.0591   12.5239 H       1  UNL1        0.1532
     31 C          59.3662   80.3851   14.1064 C.3     1  UNL1        0.2573
     32 O          60.7148   80.4134   14.7624 O.3     1  UNL1       -0.4306
     33 C          63.3577   81.8903   10.8880 C.3     1  UNL1        0.0251
     34 C          63.9104   83.2168   10.4582 C.3     1  UNL1        0.0021
     35 C          62.8050   80.5637   11.3179 C.3     1  UNL1        0.0021
     36 C          63.8963   81.2607    9.6376 C.3     1  UNL1        0.0021
     37 C          64.3040   86.2888   14.1826 C.3     1  UNL1        0.0460
     38 C          63.7527   86.6967   15.5166 C.ar    1  UNL1       -0.0205
     39 C          63.6515   88.1501   15.8737 C.ar    1  UNL1       -0.0042
     40 C          63.1001   88.5580   17.2078 C.ar    1  UNL1       -0.0003
     41 C          62.6500   87.5125   18.1847 C.ar    1  UNL1       -0.0000
     42 C          62.7513   86.0592   17.8276 C.ar    1  UNL1       -0.0003
     43 C          63.3026   85.6512   16.4936 C.ar    1  UNL1       -0.0042
     44 C          61.8387   90.5081   11.0061 C.3     1  UNL1        0.0484
     45 C          63.0223   90.9502   11.8145 C.ar    1  UNL1       -0.0204
     46 C          63.0614   90.6900   13.2912 C.ar    1  UNL1       -0.0042
     47 C          64.2451   91.1321   14.0996 C.ar    1  UNL1       -0.0003
     48 C          65.3898   91.8343   13.4312 C.ar    1  UNL1        0.0015
     49 C          65.3507   92.0944   11.9544 C.ar    1  UNL1       -0.0003
     50 C          64.1670   91.6524   11.1461 C.ar    1  UNL1       -0.0042
     51 C          66.5734   92.2763   14.2395 C.ar    1  UNL1        0.0214
     52 C          66.3685   92.9301   15.5740 C.ar    1  UNL1        0.0990
     53 N          67.5521   93.3721   16.3823 N.ar    1  UNL1       -0.2400
     54 C          68.9408   93.1605   15.8562 C.ar    1  UNL1        0.1284
     55 C          69.1459   92.5068   14.5219 C.ar    1  UNL1        0.1592
     56 F          70.5346   92.2951   13.9958 F       1  UNL1       -0.2025
     57 C          67.9621   92.0647   13.7135 C.ar    1  UNL1        0.0328
@<TRIPOS>BOND
     1    31    32    1
     2    32    27    1
     3    27    28    2
     4    27    29   am
     5    26    29    1
     6    26    22    1
     7    22    23    2
     8    22    24   am
     9    24    21    1
    10    21    37    1
    11    37    38    1
    12    38    39   ar
    13    39    40   ar
    14    40    41   ar
    15    41    42   ar
    16    42    43   ar
    17    21    20    1
    18    20    17    1
    19    17    18    1
    20    17     1    1
    21     1    44    1
    22    44    45    1
    23    45    46   ar
    24    46    47   ar
    25    47    48   ar
    26    48    51    1
    27    51    52   ar
    28    52    53   ar
    29    53    54   ar
    30    54    55   ar
    31    55    56    1
    32    55    57   ar
    33    48    49   ar
    34    49    50   ar
    35     1     2    1
    36     2     3   am
    37     3     4    2
    38     3     6    1
    39     6    11    1
    40    11    12   am
    41    12    13    2
    42    12    15    1
    43    15    16    1
    44     6     7    1
    45     7     8    1
    46     7     9    1
    47     7    10    1
    48    26    33    1
    49    33    34    1
    50    33    35    1
    51    33    36    1
    52    43    38   ar
    53    50    45   ar
    54    57    51   ar
    55    29    30    1
    56    24    25    1
    57    18    19    1
    58     2     5    1
    59    11    14    1
@<TRIPOS>MOLECULE
*****
 57 59 0 0 0
SMALL
GASTEIGER

@<TRIPOS>ATOM
      1 C          61.7887   85.9335   10.8185 C.3     1  UNL1        0.1027
      2 N          61.2648   87.0829   11.6276 N.am    1  UNL1       -0.3019
      3 C          61.9464   88.4175   11.5634 C.2     1  UNL1        0.2405
      4 O          63.1518   88.6028   10.6902 O.2     1  UNL1       -0.2733
      5 H          60.4737   86.9612   12.2007 H       1  UNL1        0.1495
      6 C          61.4225   89.5668   12.3725 C.3     1  UNL1        0.1509
      7 C          60.1464   90.2458   11.9721 C.3     1  UNL1        0.0251
      8 C          59.3947   89.4268   12.9791 C.3     1  UNL1        0.0021
      9 C          60.8981   91.0649   10.9652 C.3     1  UNL1        0.0021
     10 C          58.8702   90.9249   11.5717 C.3     1  UNL1        0.0021
     11 N          62.1748   90.0372   13.5819 N.am    1  UNL1       -0.2640
     12 C          63.4120   90.8695   13.4189 C.2     1  UNL1        0.4021
     13 O          63.8970   91.2315   12.0464 O.2     1  UNL1       -0.2264
     14 H          61.8566   89.7996   14.4828 H       1  UNL1        0.1532
     15 O          64.1644   91.3398   14.6284 O.3     1  UNL1       -0.4306
     16 C          65.6610   91.2455   14.6643 C.3     1  UNL1        0.2573
     17 C          62.9450   85.1243   11.3263 C.3     1  UNL1        0.1303
     18 O          63.6002   84.1111   10.4351 O.3     1  UNL1       -0.3827
     19 H          63.1580   84.1058    9.5718 H       1  UNL1        0.2104
     20 C          63.4462   85.3282   12.7253 C.3     1  UNL1        0.0508
     21 C          63.3294   84.2227   13.7324 C.3     1  UNL1        0.0784
     22 C          63.4466   81.8226   12.7446 C.2     1  UNL1        0.2404
     23 O          64.9169   81.9940   12.5024 O.2     1  UNL1       -0.2733
     24 N          62.6529   82.9369   13.3596 N.am    1  UNL1       -0.3042
     25 H          61.6878   82.8243   13.5186 H       1  UNL1        0.1494
     26 C          62.7700   80.5367   12.3718 C.3     1  UNL1        0.1509
     27 C          60.6770   80.3690   13.9018 C.2     1  UNL1        0.4021
     28 O          60.1965   81.6945   13.3899 O.2     1  UNL1       -0.2264
     29 N          61.9637   79.7901   13.3928 N.am    1  UNL1       -0.2640
     30 H          62.2791   78.9201   13.7288 H       1  UNL1        0.1532
     31 C          58.3725   79.6341   14.8501 C.3     1  UNL1        0.2573
     32 O          59.8707   79.6223   14.9228 O.3     1  UNL1       -0.4306
     33 C          62.8997   79.9977   10.9781 C.3     1  UNL1        0.0251
     34 C          63.1354   81.3865   10.4628 C.3     1  UNL1        0.0021
     35 C          62.6640   78.6088   11.4933 C.3     1  UNL1        0.0021
     36 C          63.0294   79.4586    9.5843 C.3     1  UNL1        0.0021
     37 C          63.8892   84.4030   15.1123 C.3     1  UNL1        0.0460
     38 C          63.6016   85.6590   15.8801 C.ar    1  UNL1       -0.0205
     39 C          64.0638   86.9842   15.3507 C.ar    1  UNL1       -0.0042
     40 C          63.7761   88.2403   16.1186 C.ar    1  UNL1       -0.0003
     41 C          63.0263   88.1711   17.4159 C.ar    1  UNL1       -0.0000
     42 C          62.5642   86.8460   17.9453 C.ar    1  UNL1       -0.0003
     43 C          62.8518   85.5899   17.1775 C.ar    1  UNL1       -0.0042
     44 C          61.1562   85.5935    9.5015 C.3     1  UNL1        0.0484
     45 C          60.5496   86.6762    8.6590 C.ar    1  UNL1       -0.0204
     46 C          59.5987   86.3227    7.5541 C.ar    1  UNL1       -0.0042
     47 C          58.9921   87.4054    6.7116 C.ar    1  UNL1       -0.0003
     48 C          59.3364   88.8416    6.9740 C.ar    1  UNL1        0.0015
     49 C          60.2874   89.1951    8.0790 C.ar    1  UNL1       -0.0003
     50 C          60.8939   88.1124    8.9215 C.ar    1  UNL1       -0.0042
     51 C          58.7299   89.9243    6.1315 C.ar    1  UNL1        0.0214
     52 C          57.2385   90.0472    6.0278 C.ar    1  UNL1        0.0990
     53 N          56.6319   91.1299    5.1853 N.ar    1  UNL1       -0.2400
     54 C          57.5167   92.0897    4.4465 C.ar    1  UNL1        0.1284
     55 C          59.0080   91.9669    4.5502 C.ar    1  UNL1        0.1592
     56 F          59.8928   92.9267    3.8113 F       1  UNL1       -0.2025
     57 C          59.6147   90.8841    5.3927 C.ar    1  UNL1        0.0328
@<TRIPOS>BOND
     1    31    32    1
     2    32    27    1
     3    27    28    2
     4    27    29   am
     5    26    29    1
     6    26    22    1
     7    22    23    2
     8    22    24   am
     9    24    21    1
    10    21    37    1
    11    37    38    1
    12    38    39   ar
    13    39    40   ar
    14    40    41   ar
    15    41    42   ar
    16    42    43   ar
    17    21    20    1
    18    20    17    1
    19    17    18    1
    20    17     1    1
    21     1    44    1
    22    44    45    1
    23    45    46   ar
    24    46    47   ar
    25    47    48   ar
    26    48    51    1
    27    51    52   ar
    28    52    53   ar
    29    53    54   ar
    30    54    55   ar
    31    55    56    1
    32    55    57   ar
    33    48    49   ar
    34    49    50   ar
    35     1     2    1
    36     2     3   am
    37     3     4    2
    38     3     6    1
    39     6    11    1
    40    11    12   am
    41    12    13    2
    42    12    15    1
    43    15    16    1
    44     6     7    1
    45     7     8    1
    46     7     9    1
    47     7    10    1
    48    26    33    1
    49    33    34    1
    50    33    35    1
    51    33    36    1
    52    43    38   ar
    53    50    45   ar
    54    57    51   ar
    55    29    30    1
    56    24    25    1
    57    18    19    1
    58     2     5    1
    59    11    14    1
