@<TRIPOS>MOLECULE
*****
 27 28 0 0 0
SMALL
GASTEIGER

@<TRIPOS>ATOM
      1 C          63.5323   90.4706   16.5171 C.3     1  UNL1        0.0527
      2 C          63.5349   90.3988   15.0188 C.ar    1  UNL1        0.0673
      3 N          62.4866   89.7486   14.1655 N.ar    1  UNL1       -0.2283
      4 C          62.8901   89.9125   12.7301 C.ar    1  UNL1        0.1652
      5 S          64.1878   90.6640   12.6963 S.2     1  UNL1       -0.0517
      6 C          64.5864   90.9645   14.1109 C.ar    1  UNL1        0.0471
      7 C          65.8198   91.7015   14.5418 C.ar    1  UNL1        0.0265
      8 C          65.8863   92.3184   15.9074 C.ar    1  UNL1        0.0049
      9 C          67.1197   93.0553   16.3382 C.ar    1  UNL1        0.0339
     10 C          68.2866   93.1753   15.4034 C.ar    1  UNL1        0.1254
     11 N          69.5200   93.9123   15.8343 N.pl3   1  UNL1       -0.3426
     12 N          68.2201   92.5585   14.0377 N.ar    1  UNL1       -0.2296
     13 C          66.9867   91.8215   13.6069 C.ar    1  UNL1        0.1008
     14 H          69.5636   94.3172   16.7306 H       1  UNL1        0.1437
     15 H          70.2859   93.9911   15.2207 H       1  UNL1        0.1437
     16 N          62.1295   89.4126   11.5378 N.am    1  UNL1       -0.2642
     17 C          62.0864   87.9436   11.2376 C.2     1  UNL1        0.2269
     18 O          62.8039   86.9744   12.1298 O.2     1  UNL1       -0.2747
     19 H          61.6586   90.0487   10.9523 H       1  UNL1        0.1567
     20 C          61.3257   87.4437   10.0453 C.3     1  UNL1        0.0774
     21 C          61.3312   88.8258    9.4624 C.3     1  UNL1        0.0094
     22 C          61.3203   86.0616   10.6283 C.3     1  UNL1        0.0094
     23 C          60.5651   86.9438    8.8531 C.3     1  UNL1        0.1119
     24 C          61.1979   85.9535    7.9210 C.3     1  UNL1        0.3982
     25 F          61.8308   84.9632    6.9889 F       1  UNL1       -0.1700
     26 F          62.5570   86.3760    8.3949 F       1  UNL1       -0.1700
     27 F          59.8389   85.5311    7.4471 F       1  UNL1       -0.1700
@<TRIPOS>BOND
     1     1     2    1
     2     2     3   ar
     3     3     4   ar
     4     4    16    1
     5    16    17   am
     6    17    18    2
     7    17    20    1
     8    20    21    1
     9    20    22    1
    10    20    23    1
    11    23    24    1
    12    24    25    1
    13    24    26    1
    14    24    27    1
    15     4     5   ar
    16     5     6   ar
    17     6     7    1
    18     7     8   ar
    19     8     9   ar
    20     9    10   ar
    21    10    11    1
    22    10    12   ar
    23    12    13   ar
    24     6     2   ar
    25    13     7   ar
    26    16    19    1
    27    11    14    1
    28    11    15    1
@<TRIPOS>MOLECULE
*****
 27 28 0 0 0
SMALL
GASTEIGER

@<TRIPOS>ATOM
      1 C          59.2632   88.6012   11.7780 C.3     1  UNL1        0.0527
      2 C          60.6343   89.1680   11.5572 C.ar    1  UNL1        0.0673
      3 N          61.2804   90.2534   12.3662 N.ar    1  UNL1       -0.2283
      4 C          62.6455   90.5052   11.7977 C.ar    1  UNL1        0.1652
      5 S          62.8431   89.5753   10.6374 S.2     1  UNL1       -0.0517
      6 C          61.6001   88.7489   10.4888 C.ar    1  UNL1        0.0471
      7 C          61.3644   87.6894    9.4534 C.ar    1  UNL1        0.0265
      8 C          62.3860   86.6129    9.2357 C.ar    1  UNL1        0.0049
      9 C          62.1502   85.5535    8.2004 C.ar    1  UNL1        0.0339
     10 C          60.8928   85.5705    7.3827 C.ar    1  UNL1        0.1254
     11 N          60.6570   84.5110    6.3473 N.pl3   1  UNL1       -0.3426
     12 N          59.8711   86.6470    7.6004 N.ar    1  UNL1       -0.2296
     13 C          60.1069   87.7064    8.6357 C.ar    1  UNL1        0.1008
     14 H          61.3276   83.8045    6.2045 H       1  UNL1        0.1437
     15 H          59.8317   84.5222    5.8107 H       1  UNL1        0.1437
     16 N          63.6386   91.5103   12.3012 N.am    1  UNL1       -0.2642
     17 C          64.6283   91.1217   13.3592 C.2     1  UNL1        0.2269
     18 O          64.6249   89.7279   13.9138 O.2     1  UNL1       -0.2747
     19 H          63.6409   92.4250   11.9372 H       1  UNL1        0.1567
     20 C          65.6215   92.1268   13.8627 C.3     1  UNL1        0.0774
     21 C          65.8117   92.6386   12.4656 C.3     1  UNL1        0.0094
     22 C          65.4312   91.6150   15.2597 C.3     1  UNL1        0.0094
     23 C          66.6146   93.1319   14.3661 C.3     1  UNL1        0.1119
     24 C          67.8048   92.6783   15.1584 C.3     1  UNL1        0.3982
     25 F          68.9950   92.2247   15.9506 F       1  UNL1       -0.1700
     26 F          67.3383   93.4951   16.3268 F       1  UNL1       -0.1700
     27 F          68.2712   91.8615   13.9899 F       1  UNL1       -0.1700
@<TRIPOS>BOND
     1     1     2    1
     2     2     3   ar
     3     3     4   ar
     4     4    16    1
     5    16    17   am
     6    17    18    2
     7    17    20    1
     8    20    21    1
     9    20    22    1
    10    20    23    1
    11    23    24    1
    12    24    25    1
    13    24    26    1
    14    24    27    1
    15     4     5   ar
    16     5     6   ar
    17     6     7    1
    18     7     8   ar
    19     8     9   ar
    20     9    10   ar
    21    10    11    1
    22    10    12   ar
    23    12    13   ar
    24     6     2   ar
    25    13     7   ar
    26    16    19    1
    27    11    14    1
    28    11    15    1
@<TRIPOS>MOLECULE
*****
 27 28 0 0 0
SMALL
GASTEIGER

@<TRIPOS>ATOM
      1 C          62.2021   86.3023   11.1419 C.3     1  UNL1        0.0527
      2 C          62.9742   86.6368   12.3836 C.ar    1  UNL1        0.0673
      3 N          63.4137   88.0074   12.8060 N.ar    1  UNL1       -0.2283
      4 C          64.1536   87.8773   14.1044 C.ar    1  UNL1        0.1652
      5 S          64.1714   86.4263   14.4843 S.2     1  UNL1       -0.0517
      6 C          63.4425   85.6597   13.4208 C.ar    1  UNL1        0.0471
      7 C          63.2208   84.1763   13.3985 C.ar    1  UNL1        0.0265
      8 C          63.7181   83.3610   12.2418 C.ar    1  UNL1        0.0049
      9 C          63.4964   81.8776   12.2195 C.ar    1  UNL1        0.0339
     10 C          62.7775   81.2096   13.3539 C.ar    1  UNL1        0.1254
     11 N          62.5558   79.7262   13.3316 N.pl3   1  UNL1       -0.3426
     12 N          62.2802   82.0249   14.5106 N.ar    1  UNL1       -0.2296
     13 C          62.5019   83.5082   14.5329 C.ar    1  UNL1        0.1008
     14 H          62.8821   79.1911   12.5724 H       1  UNL1        0.1437
     15 H          62.0839   79.2877   14.0761 H       1  UNL1        0.1437
     16 N          64.7678   89.0008   14.8856 N.am    1  UNL1       -0.2642
     17 C          64.7841   90.3887   14.3168 C.2     1  UNL1        0.2269
     18 O          64.1861   90.6530   12.9667 O.2     1  UNL1       -0.2747
     19 H          65.1603   88.8274   15.7717 H       1  UNL1        0.1567
     20 C          65.3983   91.5123   15.0980 C.3     1  UNL1        0.0774
     21 C          66.5183   91.5916   14.1034 C.3     1  UNL1        0.0094
     22 C          64.2784   91.4330   16.0926 C.3     1  UNL1        0.0094
     23 C          66.0126   92.6358   15.8792 C.3     1  UNL1        0.1119
     24 C          67.4210   93.0658   15.5935 C.3     1  UNL1        0.3982
     25 F          68.8293   93.4957   15.3079 F       1  UNL1       -0.1700
     26 F          66.9086   94.1288   14.6675 F       1  UNL1       -0.1700
     27 F          67.9333   92.0028   16.5196 F       1  UNL1       -0.1700
@<TRIPOS>BOND
     1     1     2    1
     2     2     3   ar
     3     3     4   ar
     4     4    16    1
     5    16    17   am
     6    17    18    2
     7    17    20    1
     8    20    21    1
     9    20    22    1
    10    20    23    1
    11    23    24    1
    12    24    25    1
    13    24    26    1
    14    24    27    1
    15     4     5   ar
    16     5     6   ar
    17     6     7    1
    18     7     8   ar
    19     8     9   ar
    20     9    10   ar
    21    10    11    1
    22    10    12   ar
    23    12    13   ar
    24     6     2   ar
    25    13     7   ar
    26    16    19    1
    27    11    14    1
    28    11    15    1
@<TRIPOS>MOLECULE
*****
 27 28 0 0 0
SMALL
GASTEIGER

@<TRIPOS>ATOM
      1 C          62.3754   85.6316   17.1328 C.3     1  UNL1        0.0527
      2 C          63.1356   86.3886   16.0845 C.ar    1  UNL1        0.0673
      3 N          63.5635   87.8238   16.1697 N.ar    1  UNL1       -0.2283
      4 C          64.2939   88.1656   14.9048 C.ar    1  UNL1        0.1652
      5 S          64.3173   86.9417   14.0379 S.2     1  UNL1       -0.0517
      6 C          63.6014   85.8435   14.7670 C.ar    1  UNL1        0.0471
      7 C          63.3888   84.4455   14.2664 C.ar    1  UNL1        0.0265
      8 C          62.7889   84.2175   12.9107 C.ar    1  UNL1        0.0049
      9 C          62.5762   82.8196   12.4101 C.ar    1  UNL1        0.0339
     10 C          62.9635   81.6497   13.2653 C.ar    1  UNL1        0.1254
     11 N          62.7508   80.2517   12.7647 N.pl3   1  UNL1       -0.3426
     12 N          63.5634   81.8777   14.6211 N.ar    1  UNL1       -0.2296
     13 C          63.7760   83.2756   15.1216 C.ar    1  UNL1        0.1008
     14 H          62.3571   80.1021   11.8749 H       1  UNL1        0.1437
     15 H          63.0050   79.4839   13.3260 H       1  UNL1        0.1437
     16 N          64.8952   89.4975   14.5663 N.am    1  UNL1       -0.2642
     17 C          64.3702   90.2831   13.4013 C.2     1  UNL1        0.2269
     18 O          63.2439   89.7368   12.5748 O.2     1  UNL1       -0.2747
     19 H          65.6344   89.8560   15.1088 H       1  UNL1        0.1567
     20 C          64.9715   91.6149   13.0628 C.3     1  UNL1        0.0774
     21 C          65.6928   91.6235   14.3780 C.3     1  UNL1        0.0094
     22 C          64.2502   91.6063   11.7477 C.3     1  UNL1        0.0094
     23 C          65.5728   92.9468   12.7243 C.3     1  UNL1        0.1119
     24 C          66.3807   93.1081   11.4708 C.3     1  UNL1        0.3982
     25 F          67.1886   93.2694   10.2173 F       1  UNL1       -0.1700
     26 F          67.3256   92.0429   11.9427 F       1  UNL1       -0.1700
     27 F          65.4359   94.1732   10.9989 F       1  UNL1       -0.1700
@<TRIPOS>BOND
     1     1     2    1
     2     2     3   ar
     3     3     4   ar
     4     4    16    1
     5    16    17   am
     6    17    18    2
     7    17    20    1
     8    20    21    1
     9    20    22    1
    10    20    23    1
    11    23    24    1
    12    24    25    1
    13    24    26    1
    14    24    27    1
    15     4     5   ar
    16     5     6   ar
    17     6     7    1
    18     7     8   ar
    19     8     9   ar
    20     9    10   ar
    21    10    11    1
    22    10    12   ar
    23    12    13   ar
    24     6     2   ar
    25    13     7   ar
    26    16    19    1
    27    11    14    1
    28    11    15    1
@<TRIPOS>MOLECULE
*****
 27 28 0 0 0
SMALL
GASTEIGER

@<TRIPOS>ATOM
      1 C          61.0841   86.2664   10.1132 C.3     1  UNL1        0.0527
      2 C          61.9993   86.8699   11.1370 C.ar    1  UNL1        0.0673
      3 N          62.3424   88.3245   11.2645 N.ar    1  UNL1       -0.2283
      4 C          63.2872   88.4784   12.4194 C.ar    1  UNL1        0.1652
      5 S          63.5280   87.1188   13.0055 S.2     1  UNL1       -0.0517
      6 C          62.7320   86.1247   12.2129 C.ar    1  UNL1        0.0471
      7 C          62.6783   84.6452   12.4540 C.ar    1  UNL1        0.0265
      8 C          62.4088   84.1192   13.8327 C.ar    1  UNL1        0.0049
      9 C          62.3550   82.6397   14.0737 C.ar    1  UNL1        0.0339
     10 C          62.5708   81.6862   12.9362 C.ar    1  UNL1        0.1254
     11 N          62.5171   80.2066   13.1773 N.pl3   1  UNL1       -0.3426
     12 N          62.8404   82.2121   11.5575 N.ar    1  UNL1       -0.2296
     13 C          62.8941   83.6916   11.3165 C.ar    1  UNL1        0.1008
     14 H          62.3402   79.8614   14.0821 H       1  UNL1        0.1437
     15 H          62.6587   79.5807   12.4306 H       1  UNL1        0.1437
     16 N          63.8861   89.7658   12.9031 N.am    1  UNL1       -0.2642
     17 C          64.2499   89.9270   14.3494 C.2     1  UNL1        0.2269
     18 O          64.0149   88.8007   15.3119 O.2     1  UNL1       -0.2747
     19 H          64.0403   90.5050   12.2714 H       1  UNL1        0.1567
     20 C          64.8488   91.2143   14.8331 C.3     1  UNL1        0.0774
     21 C          64.1055   91.0734   16.1284 C.3     1  UNL1        0.0094
     22 C          65.5920   91.3553   13.5379 C.3     1  UNL1        0.0094
     23 C          65.4476   92.5017   15.3169 C.3     1  UNL1        0.1119
     24 C          66.8835   92.8188   15.0208 C.3     1  UNL1        0.3982
     25 F          68.3194   93.1360   14.7248 F       1  UNL1       -0.1700
     26 F          67.2966   91.5066   15.6187 F       1  UNL1       -0.1700
     27 F          66.4704   94.1311   14.4230 F       1  UNL1       -0.1700
@<TRIPOS>BOND
     1     1     2    1
     2     2     3   ar
     3     3     4   ar
     4     4    16    1
     5    16    17   am
     6    17    18    2
     7    17    20    1
     8    20    21    1
     9    20    22    1
    10    20    23    1
    11    23    24    1
    12    24    25    1
    13    24    26    1
    14    24    27    1
    15     4     5   ar
    16     5     6   ar
    17     6     7    1
    18     7     8   ar
    19     8     9   ar
    20     9    10   ar
    21    10    11    1
    22    10    12   ar
    23    12    13   ar
    24     6     2   ar
    25    13     7   ar
    26    16    19    1
    27    11    14    1
    28    11    15    1
@<TRIPOS>MOLECULE
*****
 27 28 0 0 0
SMALL
GASTEIGER

@<TRIPOS>ATOM
      1 C          55.3785   94.5816   -1.6484 C.3     1  UNL1        0.0527
      2 C          56.8227   94.1831   -1.7227 C.ar    1  UNL1        0.0673
      3 N          57.9034   94.6036   -0.7713 N.ar    1  UNL1       -0.2283
      4 C          59.1884   93.9745   -1.2220 C.ar    1  UNL1        0.1652
      5 S          58.9017   93.1652   -2.4520 S.2     1  UNL1       -0.0517
      6 C          57.4397   93.2941   -2.7614 C.ar    1  UNL1        0.0471
      7 C          56.7208   92.6475   -3.9083 C.ar    1  UNL1        0.0265
      8 C          56.5562   93.3869   -5.2029 C.ar    1  UNL1        0.0049
      9 C          55.8374   92.7403   -6.3497 C.ar    1  UNL1        0.0339
     10 C          55.2831   91.3543   -6.2018 C.ar    1  UNL1        0.1254
     11 N          54.5643   90.7077   -7.3487 N.pl3   1  UNL1       -0.3426
     12 N          55.4477   90.6149   -4.9072 N.ar    1  UNL1       -0.2296
     13 C          56.1666   91.2615   -3.7604 C.ar    1  UNL1        0.1008
     14 H          54.4562   91.1930   -8.1984 H       1  UNL1        0.1437
     15 H          54.2005   89.7980   -7.2517 H       1  UNL1        0.1437
     16 N          60.5252   94.1278   -0.5592 N.am    1  UNL1       -0.2642
     17 C          61.1969   92.9374    0.0587 C.2     1  UNL1        0.2269
     18 O          60.5317   91.5936    0.0138 O.2     1  UNL1       -0.2747
     19 H          60.9618   95.0097   -0.5297 H       1  UNL1        0.1567
     20 C          62.5337   93.0906    0.7216 C.3     1  UNL1        0.0774
     21 C          61.9708   92.5190    1.9890 C.3     1  UNL1        0.0094
     22 C          63.0966   93.6623   -0.5458 C.3     1  UNL1        0.0094
     23 C          63.8705   93.2439    1.3844 C.3     1  UNL1        0.1119
     24 C          64.6093   94.5460    1.2905 C.3     1  UNL1        0.3982
     25 F          65.3481   95.8481    1.1965 F       1  UNL1       -0.1700
     26 F          63.4472   95.2511    1.9248 F       1  UNL1       -0.1700
     27 F          65.7714   93.8409    0.6562 F       1  UNL1       -0.1700
@<TRIPOS>BOND
     1     1     2    1
     2     2     3   ar
     3     3     4   ar
     4     4    16    1
     5    16    17   am
     6    17    18    2
     7    17    20    1
     8    20    21    1
     9    20    22    1
    10    20    23    1
    11    23    24    1
    12    24    25    1
    13    24    26    1
    14    24    27    1
    15     4     5   ar
    16     5     6   ar
    17     6     7    1
    18     7     8   ar
    19     8     9   ar
    20     9    10   ar
    21    10    11    1
    22    10    12   ar
    23    12    13   ar
    24     6     2   ar
    25    13     7   ar
    26    16    19    1
    27    11    14    1
    28    11    15    1
@<TRIPOS>MOLECULE
*****
 27 28 0 0 0
SMALL
GASTEIGER

@<TRIPOS>ATOM
      1 C          64.1965   87.2287   13.8814 C.3     1  UNL1        0.0527
      2 C          63.2268   87.1108   12.7431 C.ar    1  UNL1        0.0673
      3 N          62.6764   88.2467   11.9326 N.ar    1  UNL1       -0.2283
      4 C          61.7467   87.6743   10.9039 C.ar    1  UNL1        0.1652
      5 S          61.7226   86.1848   11.0787 S.2     1  UNL1       -0.0517
      6 C          62.6373   85.8365   12.2153 C.ar    1  UNL1        0.0471
      7 C          62.9140   84.4562   12.7333 C.ar    1  UNL1        0.0265
      8 C          63.5384   83.4294   11.8356 C.ar    1  UNL1        0.0049
      9 C          63.8151   82.0492   12.3536 C.ar    1  UNL1        0.0339
     10 C          63.4672   81.6957   13.7693 C.ar    1  UNL1        0.1254
     11 N          63.7439   80.3153   14.2872 N.pl3   1  UNL1       -0.3426
     12 N          62.8428   82.7224   14.6669 N.ar    1  UNL1       -0.2296
     13 C          62.5662   84.1026   14.1489 C.ar    1  UNL1        0.1008
     14 H          64.1538   79.6414   13.6980 H       1  UNL1        0.1437
     15 H          63.5156   80.0833   15.2164 H       1  UNL1        0.1437
     16 N          60.9765   88.4546    9.8802 N.am    1  UNL1       -0.2642
     17 C          60.2767   87.7394    8.7627 C.2     1  UNL1        0.2269
     18 O          60.3472   86.2439    8.6688 O.2     1  UNL1       -0.2747
     19 H          60.9302   89.4361    9.9418 H       1  UNL1        0.1567
     20 C          59.5064   88.5197    7.7390 C.3     1  UNL1        0.0774
     21 C          59.9483   89.8004    8.3827 C.3     1  UNL1        0.0094
     22 C          59.0645   87.2389    7.0953 C.3     1  UNL1        0.0094
     23 C          58.7362   89.2999    6.7154 C.3     1  UNL1        0.1119
     24 C          59.4428   90.2946    5.8429 C.3     1  UNL1        0.3982
     25 F          60.1494   91.2892    4.9704 F       1  UNL1       -0.1700
     26 F          58.2748   91.2282    5.9613 F       1  UNL1       -0.1700
     27 F          60.6108   89.3609    5.7245 F       1  UNL1       -0.1700
@<TRIPOS>BOND
     1     1     2    1
     2     2     3   ar
     3     3     4   ar
     4     4    16    1
     5    16    17   am
     6    17    18    2
     7    17    20    1
     8    20    21    1
     9    20    22    1
    10    20    23    1
    11    23    24    1
    12    24    25    1
    13    24    26    1
    14    24    27    1
    15     4     5   ar
    16     5     6   ar
    17     6     7    1
    18     7     8   ar
    19     8     9   ar
    20     9    10   ar
    21    10    11    1
    22    10    12   ar
    23    12    13   ar
    24     6     2   ar
    25    13     7   ar
    26    16    19    1
    27    11    14    1
    28    11    15    1
@<TRIPOS>MOLECULE
*****
 27 28 0 0 0
SMALL
GASTEIGER

@<TRIPOS>ATOM
      1 C          55.8996   91.6339   -2.3890 C.3     1  UNL1        0.0527
      2 C          56.7210   92.6989   -1.7250 C.ar    1  UNL1        0.0673
      3 N          57.9567   92.4759   -0.9045 N.ar    1  UNL1       -0.2283
      4 C          58.4505   93.8131   -0.4373 C.ar    1  UNL1        0.1652
      5 S          57.5198   94.8625   -0.9690 S.2     1  UNL1       -0.0517
      6 C          56.4510   94.1738   -1.7649 C.ar    1  UNL1        0.0471
      7 C          55.3120   94.8428   -2.4759 C.ar    1  UNL1        0.0265
      8 C          54.1009   95.2800   -1.7066 C.ar    1  UNL1        0.0049
      9 C          52.9620   95.9489   -2.4175 C.ar    1  UNL1        0.0339
     10 C          53.0343   96.1806   -3.8978 C.ar    1  UNL1        0.1254
     11 N          51.8953   96.8495   -4.6087 N.pl3   1  UNL1       -0.3426
     12 N          54.2454   95.7433   -4.6671 N.ar    1  UNL1       -0.2296
     13 C          55.3843   95.0744   -3.9561 C.ar    1  UNL1        0.1008
     14 H          51.1004   97.1365   -4.1038 H       1  UNL1        0.1437
     15 H          51.9427   97.0016   -5.5802 H       1  UNL1        0.1437
     16 N          59.6620   94.0580    0.4125 N.am    1  UNL1       -0.2642
     17 C          61.0336   93.9148   -0.1778 C.2     1  UNL1        0.2269
     18 O          61.1935   93.5268   -1.6180 O.2     1  UNL1       -0.2747
     19 H          59.5571   94.3126    1.3577 H       1  UNL1        0.1567
     20 C          62.2451   94.1596    0.6719 C.3     1  UNL1        0.0774
     21 C          61.4727   93.7508    1.8910 C.3     1  UNL1        0.0094
     22 C          63.0176   94.5684   -0.5471 C.3     1  UNL1        0.0094
     23 C          63.4567   94.4044    1.5217 C.3     1  UNL1        0.1119
     24 C          64.7749   93.7984    1.1407 C.3     1  UNL1        0.3982
     25 F          66.0930   93.1924    0.7597 F       1  UNL1       -0.1700
     26 F          64.2138   92.4279    1.3794 F       1  UNL1       -0.1700
     27 F          65.3359   95.1689    0.9020 F       1  UNL1       -0.1700
@<TRIPOS>BOND
     1     1     2    1
     2     2     3   ar
     3     3     4   ar
     4     4    16    1
     5    16    17   am
     6    17    18    2
     7    17    20    1
     8    20    21    1
     9    20    22    1
    10    20    23    1
    11    23    24    1
    12    24    25    1
    13    24    26    1
    14    24    27    1
    15     4     5   ar
    16     5     6   ar
    17     6     7    1
    18     7     8   ar
    19     8     9   ar
    20     9    10   ar
    21    10    11    1
    22    10    12   ar
    23    12    13   ar
    24     6     2   ar
    25    13     7   ar
    26    16    19    1
    27    11    14    1
    28    11    15    1
