@<TRIPOS>MOLECULE
*****
 32 35 0 0 0
SMALL
GASTEIGER

@<TRIPOS>ATOM
      1 C          63.2444   89.4360   16.1011 C.3     1  UNL1        0.0523
      2 C          63.9209   88.8731   14.8864 C.3     1  UNL1        0.1898
      3 C          63.7603   89.5496   13.5573 C.ar    1  UNL1        0.0349
      4 C          62.8557   88.9565   12.5182 C.ar    1  UNL1        0.0018
      5 C          62.6952   89.6330   11.1891 C.ar    1  UNL1        0.0139
      6 C          63.4393   90.9027   10.8991 C.ar    1  UNL1        0.0027
      7 C          64.3440   91.4958   11.9382 C.ar    1  UNL1        0.0190
      8 C          64.5045   90.8193   13.2673 C.ar    1  UNL1        0.0822
      9 N          65.4092   91.4125   14.3064 N.ar    1  UNL1       -0.2283
     10 C          66.8997   91.2571   14.3701 C.ar    1  UNL1        0.1020
     11 C          67.3939   92.0138   15.5674 C.ar    1  UNL1        0.0431
     12 C          66.2087   92.6368   16.2436 C.ar    1  UNL1        0.1221
     13 N          64.9821   92.2651   15.4643 N.ar    1  UNL1       -0.1635
     14 C          61.7905   89.0398   10.1500 C.2     1  UNL1        0.0729
     15 O          62.1395   87.7277    9.5125 O.co2   1  UNL1       -0.5446
     16 O          60.5368   89.7589    9.7484 O.co2   1  UNL1       -0.5446
     17 O          64.7579   87.6336   15.0009 O.3     1  UNL1       -0.4719
     18 C          64.1538   86.2913   14.7127 C.ar    1  UNL1        0.1698
     19 C          64.3176   85.6705   13.3570 C.ar    1  UNL1        0.0414
     20 C          63.7134   84.3282   13.0688 C.ar    1  UNL1        0.0253
     21 C          63.8772   83.7075   11.7132 C.ar    1  UNL1        0.0314
     22 C          63.2730   82.3651   11.4249 C.ar    1  UNL1        0.1425
     23 F          63.4368   81.7444   10.0693 F       1  UNL1       -0.2041
     24 C          62.5050   81.6435   12.4924 C.ar    1  UNL1        0.0608
     25 C          62.3412   82.2643   13.8481 C.ar    1  UNL1        0.1599
     26 F          61.5732   81.5427   14.9155 F       1  UNL1       -0.2025
     27 C          62.9454   83.6066   14.1363 C.ar    1  UNL1        0.1104
     28 N          62.7815   84.2274   15.4919 N.ar    1  UNL1       -0.2257
     29 C          63.3857   85.5697   15.7801 C.ar    1  UNL1        0.1597
     30 N          63.2219   86.1905   17.1358 N.pl3   1  UNL1       -0.3402
     31 H          62.7178   85.7169   17.8364 H       1  UNL1        0.1438
     32 H          63.6185   87.0715   17.3250 H       1  UNL1        0.1438
@<TRIPOS>UNITY_ATOM_ATTR
15 1
charge -1
@<TRIPOS>BOND
     1     2     1    1
     2     2    17    1
     3    17    18    1
     4    18    19   ar
     5    19    20   ar
     6    20    21   ar
     7    21    22   ar
     8    22    23    1
     9    22    24   ar
    10    24    25   ar
    11    25    26    1
    12    25    27   ar
    13    27    28   ar
    14    28    29   ar
    15    29    30    1
    16     2     3    1
    17     3     4   ar
    18     4     5   ar
    19     5    14    1
    20    14    15   ar
    21    14    16   ar
    22     5     6   ar
    23     6     7   ar
    24     7     8   ar
    25     8     9    1
    26     9    10   ar
    27    10    11   ar
    28    11    12   ar
    29    12    13   ar
    30    29    18   ar
    31     8     3   ar
    32    13     9   ar
    33    27    20   ar
    34    30    31    1
    35    30    32    1
@<TRIPOS>MOLECULE
*****
 32 35 0 0 0
SMALL
GASTEIGER

@<TRIPOS>ATOM
      1 C          62.4396   89.0354   15.4453 C.3     1  UNL1        0.0523
      2 C          63.7512   88.9118   14.7280 C.3     1  UNL1        0.1898
      3 C          64.2086   90.0045   13.8077 C.ar    1  UNL1        0.0349
      4 C          65.3216   90.9195   14.2248 C.ar    1  UNL1        0.0018
      5 C          65.7790   92.0121   13.3045 C.ar    1  UNL1        0.0139
      6 C          65.1234   92.1898   11.9672 C.ar    1  UNL1        0.0027
      7 C          64.0103   91.2748   11.5501 C.ar    1  UNL1        0.0190
      8 C          63.5530   90.1822   12.4703 C.ar    1  UNL1        0.0822
      9 N          62.4399   89.2672   12.0533 N.ar    1  UNL1       -0.2283
     10 C          62.5978   87.9400   11.3724 C.ar    1  UNL1        0.1020
     11 C          61.2290   87.3714   11.1422 C.ar    1  UNL1        0.0431
     12 C          60.2250   88.3471   11.6808 C.ar    1  UNL1        0.1221
     13 N          60.9734   89.5188   12.2439 N.ar    1  UNL1       -0.1635
     14 C          66.8921   92.9271   13.7216 C.2     1  UNL1        0.0729
     15 O          68.3106   92.4398   13.7024 O.co2   1  UNL1       -0.5446
     16 O          66.5866   94.3294   14.1578 O.co2   1  UNL1       -0.5446
     17 O          64.6054   87.6956   14.9310 O.3     1  UNL1       -0.4719
     18 C          64.0432   86.3311   14.6629 C.ar    1  UNL1        0.1698
     19 C          64.1851   85.7155   13.3023 C.ar    1  UNL1        0.0414
     20 C          63.6230   84.3510   13.0342 C.ar    1  UNL1        0.0253
     21 C          63.7649   83.7355   11.6737 C.ar    1  UNL1        0.0314
     22 C          63.2027   82.3708   11.4055 C.ar    1  UNL1        0.1425
     23 F          63.3446   81.7554   10.0450 F       1  UNL1       -0.2041
     24 C          62.4987   81.6218   12.4979 C.ar    1  UNL1        0.0608
     25 C          62.3568   82.2373   13.8584 C.ar    1  UNL1        0.1599
     26 F          61.6528   81.4883   14.9508 F       1  UNL1       -0.2025
     27 C          62.9190   83.6019   14.1265 C.ar    1  UNL1        0.1104
     28 N          62.7771   84.2174   15.4870 N.ar    1  UNL1       -0.2257
     29 C          63.3392   85.5820   15.7552 C.ar    1  UNL1        0.1597
     30 N          63.1973   86.1975   17.1157 N.pl3   1  UNL1       -0.3402
     31 H          62.7353   85.7058   17.8327 H       1  UNL1        0.1438
     32 H          63.5663   87.0931   17.2917 H       1  UNL1        0.1438
@<TRIPOS>UNITY_ATOM_ATTR
15 1
charge -1
@<TRIPOS>BOND
     1     2     1    1
     2     2    17    1
     3    17    18    1
     4    18    19   ar
     5    19    20   ar
     6    20    21   ar
     7    21    22   ar
     8    22    23    1
     9    22    24   ar
    10    24    25   ar
    11    25    26    1
    12    25    27   ar
    13    27    28   ar
    14    28    29   ar
    15    29    30    1
    16     2     3    1
    17     3     4   ar
    18     4     5   ar
    19     5    14    1
    20    14    15   ar
    21    14    16   ar
    22     5     6   ar
    23     6     7   ar
    24     7     8   ar
    25     8     9    1
    26     9    10   ar
    27    10    11   ar
    28    11    12   ar
    29    12    13   ar
    30    29    18   ar
    31     8     3   ar
    32    13     9   ar
    33    27    20   ar
    34    30    31    1
    35    30    32    1
@<TRIPOS>MOLECULE
*****
 32 35 0 0 0
SMALL
GASTEIGER

@<TRIPOS>ATOM
      1 C          62.3853   88.6723   10.0405 C.3     1  UNL1        0.0523
      2 C          62.3222   88.1769   11.4549 C.3     1  UNL1        0.1898
      3 C          62.5627   86.7266   11.7531 C.ar    1  UNL1        0.0349
      4 C          63.4070   86.3326   12.9286 C.ar    1  UNL1        0.0018
      5 C          63.6475   84.8823   13.2267 C.ar    1  UNL1        0.0139
      6 C          63.0438   83.8261   12.3493 C.ar    1  UNL1        0.0027
      7 C          62.1995   84.2201   11.1737 C.ar    1  UNL1        0.0190
      8 C          61.9590   85.6703   10.8756 C.ar    1  UNL1        0.0822
      9 N          61.1148   86.0644    9.7000 N.ar    1  UNL1       -0.2283
     10 C          61.3987   85.7417    8.2629 C.ar    1  UNL1        0.1020
     11 C          60.2978   86.3282    7.4299 C.ar    1  UNL1        0.0431
     12 C          59.3334   87.0135    8.3522 C.ar    1  UNL1        0.1221
     13 N          59.8383   86.8504    9.7551 N.ar    1  UNL1       -0.1635
     14 C          64.4917   84.4883   14.4024 C.2     1  UNL1        0.0729
     15 O          64.1759   83.2369   15.1667 O.co2   1  UNL1       -0.5446
     16 O          65.6518   85.3456   14.8136 O.co2   1  UNL1       -0.5446
     17 O          62.0185   89.1317   12.5712 O.3     1  UNL1       -0.4719
     18 C          63.0546   90.1219   13.0138 C.ar    1  UNL1        0.1698
     19 C          63.7192   91.0130   12.0066 C.ar    1  UNL1        0.0414
     20 C          64.7553   92.0032   12.4493 C.ar    1  UNL1        0.0253
     21 C          65.4198   92.8941   11.4420 C.ar    1  UNL1        0.0314
     22 C          66.4559   93.8844   11.8847 C.ar    1  UNL1        0.1425
     23 F          67.1205   94.7754   10.8775 F       1  UNL1       -0.2041
     24 C          66.8275   93.9836   13.3345 C.ar    1  UNL1        0.0608
     25 C          66.1629   93.0926   14.3418 C.ar    1  UNL1        0.1599
     26 F          66.5344   93.1918   15.7916 F       1  UNL1       -0.2025
     27 C          65.1268   92.1024   13.8991 C.ar    1  UNL1        0.1104
     28 N          64.4623   91.2114   14.9063 N.ar    1  UNL1       -0.2257
     29 C          63.4261   90.2211   14.4637 C.ar    1  UNL1        0.1597
     30 N          62.7616   89.3302   15.4709 N.pl3   1  UNL1       -0.3402
     31 H          63.0055   89.3953   16.4225 H       1  UNL1        0.1438
     32 H          62.0816   88.6802   15.1804 H       1  UNL1        0.1438
@<TRIPOS>UNITY_ATOM_ATTR
15 1
charge -1
@<TRIPOS>BOND
     1     2     1    1
     2     2    17    1
     3    17    18    1
     4    18    19   ar
     5    19    20   ar
     6    20    21   ar
     7    21    22   ar
     8    22    23    1
     9    22    24   ar
    10    24    25   ar
    11    25    26    1
    12    25    27   ar
    13    27    28   ar
    14    28    29   ar
    15    29    30    1
    16     2     3    1
    17     3     4   ar
    18     4     5   ar
    19     5    14    1
    20    14    15   ar
    21    14    16   ar
    22     5     6   ar
    23     6     7   ar
    24     7     8   ar
    25     8     9    1
    26     9    10   ar
    27    10    11   ar
    28    11    12   ar
    29    12    13   ar
    30    29    18   ar
    31     8     3   ar
    32    13     9   ar
    33    27    20   ar
    34    30    31    1
    35    30    32    1
@<TRIPOS>MOLECULE
*****
 32 35 0 0 0
SMALL
GASTEIGER

@<TRIPOS>ATOM
      1 C          60.9317   86.5916   11.5489 C.3     1  UNL1        0.0523
      2 C          62.2712   87.1599   11.9131 C.3     1  UNL1        0.1898
      3 C          62.6226   88.5638   11.5186 C.ar    1  UNL1        0.0349
      4 C          63.4265   89.4249   12.4472 C.ar    1  UNL1        0.0018
      5 C          63.7779   90.8287   12.0527 C.ar    1  UNL1        0.0139
      6 C          63.3254   91.3715   10.7296 C.ar    1  UNL1        0.0027
      7 C          62.5215   90.5105    9.8010 C.ar    1  UNL1        0.0190
      8 C          62.1701   89.1067   10.1955 C.ar    1  UNL1        0.0822
      9 N          61.3662   88.2456    9.2669 N.ar    1  UNL1       -0.2283
     10 C          59.9933   88.5526    8.7465 C.ar    1  UNL1        0.1020
     11 C          59.5727   87.4230    7.8536 C.ar    1  UNL1        0.0431
     12 C          60.6857   86.4178    7.8222 C.ar    1  UNL1        0.1221
     13 N          61.7941   86.9262    8.6956 N.ar    1  UNL1       -0.1635
     14 C          64.5818   91.6898   12.9813 C.2     1  UNL1        0.0729
     15 O          64.3629   91.6032   14.4627 O.co2   1  UNL1       -0.5446
     16 O          65.6047   92.6375   12.4285 O.co2   1  UNL1       -0.5446
     17 O          63.2593   86.3244   12.6717 O.3     1  UNL1       -0.4719
     18 C          63.0727   84.8388   12.7616 C.ar    1  UNL1        0.1698
     19 C          63.2297   83.9876   11.5364 C.ar    1  UNL1        0.0414
     20 C          63.0430   82.5020   11.6264 C.ar    1  UNL1        0.0253
     21 C          63.2000   81.6510   10.4013 C.ar    1  UNL1        0.0314
     22 C          63.0133   80.1653   10.4911 C.ar    1  UNL1        0.1425
     23 F          63.1703   79.3142    9.2660 F       1  UNL1       -0.2041
     24 C          62.6697   79.5308   11.8062 C.ar    1  UNL1        0.0608
     25 C          62.5127   80.3819   13.0313 C.ar    1  UNL1        0.1599
     26 F          62.1690   79.7474   14.3463 F       1  UNL1       -0.2025
     27 C          62.6994   81.8675   12.9414 C.ar    1  UNL1        0.1104
     28 N          62.5424   82.7186   14.1665 N.ar    1  UNL1       -0.2257
     29 C          62.7290   84.2043   14.0766 C.ar    1  UNL1        0.1597
     30 N          62.5720   85.0554   15.3018 N.pl3   1  UNL1       -0.3402
     31 H          62.3465   84.6389   16.1648 H       1  UNL1        0.1438
     32 H          62.6945   86.0305   15.2428 H       1  UNL1        0.1438
@<TRIPOS>UNITY_ATOM_ATTR
15 1
charge -1
@<TRIPOS>BOND
     1     2     1    1
     2     2    17    1
     3    17    18    1
     4    18    19   ar
     5    19    20   ar
     6    20    21   ar
     7    21    22   ar
     8    22    23    1
     9    22    24   ar
    10    24    25   ar
    11    25    26    1
    12    25    27   ar
    13    27    28   ar
    14    28    29   ar
    15    29    30    1
    16     2     3    1
    17     3     4   ar
    18     4     5   ar
    19     5    14    1
    20    14    15   ar
    21    14    16   ar
    22     5     6   ar
    23     6     7   ar
    24     7     8   ar
    25     8     9    1
    26     9    10   ar
    27    10    11   ar
    28    11    12   ar
    29    12    13   ar
    30    29    18   ar
    31     8     3   ar
    32    13     9   ar
    33    27    20   ar
    34    30    31    1
    35    30    32    1
@<TRIPOS>MOLECULE
*****
 32 35 0 0 0
SMALL
GASTEIGER

@<TRIPOS>ATOM
      1 C          61.5338   90.8737   12.1927 C.3     1  UNL1        0.0523
      2 C          62.7361   90.0314   12.5007 C.3     1  UNL1        0.1898
      3 C          64.0312   90.6843   12.8836 C.ar    1  UNL1        0.0349
      4 C          64.6364   91.7289   11.9934 C.ar    1  UNL1        0.0018
      5 C          65.9314   92.3818   12.3762 C.ar    1  UNL1        0.0139
      6 C          66.6213   91.9901   13.6493 C.ar    1  UNL1        0.0027
      7 C          66.0161   90.9455   14.5395 C.ar    1  UNL1        0.0190
      8 C          64.7211   90.2926   14.1567 C.ar    1  UNL1        0.0822
      9 N          64.1158   89.2480   15.0469 N.ar    1  UNL1       -0.2283
     10 C          63.2505   89.5043   16.2450 C.ar    1  UNL1        0.1020
     11 C          62.8695   88.1784   16.8339 C.ar    1  UNL1        0.0431
     12 C          63.4994   87.1025   15.9997 C.ar    1  UNL1        0.1221
     13 N          64.2696   87.7636   14.8953 N.ar    1  UNL1       -0.1635
     14 C          66.5367   93.4264   11.4860 C.2     1  UNL1        0.0729
     15 O          66.1125   94.8593   11.6152 O.co2   1  UNL1       -0.5446
     16 O          67.5663   93.0381   10.4665 O.co2   1  UNL1       -0.5446
     17 O          62.6435   88.5361   12.4260 O.3     1  UNL1       -0.4719
     18 C          61.9721   87.8840   11.2538 C.ar    1  UNL1        0.1698
     19 C          62.7812   87.0868   10.2741 C.ar    1  UNL1        0.0414
     20 C          62.1098   86.4347    9.1020 C.ar    1  UNL1        0.0253
     21 C          62.9189   85.6375    8.1223 C.ar    1  UNL1        0.0314
     22 C          62.2475   84.9853    6.9501 C.ar    1  UNL1        0.1425
     23 F          63.0566   84.1882    5.9704 F       1  UNL1       -0.2041
     24 C          60.7670   85.1303    6.7577 C.ar    1  UNL1        0.0608
     25 C          59.9579   85.9275    7.7374 C.ar    1  UNL1        0.1599
     26 F          58.4773   86.0726    7.5450 F       1  UNL1       -0.2025
     27 C          60.6293   86.5797    8.9095 C.ar    1  UNL1        0.1104
     28 N          59.8201   87.3768    9.8892 N.ar    1  UNL1       -0.2257
     29 C          60.4915   88.0290   11.0614 C.ar    1  UNL1        0.1597
     30 N          59.6824   88.8262   12.0411 N.pl3   1  UNL1       -0.3402
     31 H          58.7107   88.9213   11.9148 H       1  UNL1        0.1438
     32 H          60.1231   89.2542   12.8104 H       1  UNL1        0.1438
@<TRIPOS>UNITY_ATOM_ATTR
15 1
charge -1
@<TRIPOS>BOND
     1     2     1    1
     2     2    17    1
     3    17    18    1
     4    18    19   ar
     5    19    20   ar
     6    20    21   ar
     7    21    22   ar
     8    22    23    1
     9    22    24   ar
    10    24    25   ar
    11    25    26    1
    12    25    27   ar
    13    27    28   ar
    14    28    29   ar
    15    29    30    1
    16     2     3    1
    17     3     4   ar
    18     4     5   ar
    19     5    14    1
    20    14    15   ar
    21    14    16   ar
    22     5     6   ar
    23     6     7   ar
    24     7     8   ar
    25     8     9    1
    26     9    10   ar
    27    10    11   ar
    28    11    12   ar
    29    12    13   ar
    30    29    18   ar
    31     8     3   ar
    32    13     9   ar
    33    27    20   ar
    34    30    31    1
    35    30    32    1
@<TRIPOS>MOLECULE
*****
 32 35 0 0 0
SMALL
GASTEIGER

@<TRIPOS>ATOM
      1 C          64.6882   86.3129   14.4115 C.3     1  UNL1        0.0523
      2 C          63.7076   87.0528   13.5507 C.3     1  UNL1        0.1898
      3 C          63.8418   88.5353   13.3652 C.ar    1  UNL1        0.0349
      4 C          64.7167   89.3305   14.2883 C.ar    1  UNL1        0.0018
      5 C          64.8508   90.8129   14.1028 C.ar    1  UNL1        0.0139
      6 C          64.1099   91.5001   12.9942 C.ar    1  UNL1        0.0027
      7 C          63.2350   90.7049   12.0712 C.ar    1  UNL1        0.0190
      8 C          63.1009   89.2225   12.2567 C.ar    1  UNL1        0.0822
      9 N          62.2259   88.4272   11.3336 N.ar    1  UNL1       -0.2283
     10 C          62.6525   87.7927   10.0431 C.ar    1  UNL1        0.1020
     11 C          61.4610   87.1002    9.4510 C.ar    1  UNL1        0.0431
     12 C          60.2979   87.3067   10.3755 C.ar    1  UNL1        0.1221
     13 N          60.7707   88.1269   11.5390 N.ar    1  UNL1       -0.1635
     14 C          65.7258   91.6082   15.0259 C.2     1  UNL1        0.0729
     15 O          67.2158   91.5815   14.8553 O.co2   1  UNL1       -0.5446
     16 O          65.1107   92.4302   16.1195 O.co2   1  UNL1       -0.5446
     17 O          62.5929   86.3103   12.8753 O.3     1  UNL1       -0.4719
     18 C          62.5609   84.8111   12.9107 C.ar    1  UNL1        0.1698
     19 C          62.8543   84.0251   11.6672 C.ar    1  UNL1        0.0414
     20 C          62.8223   82.5259   11.7026 C.ar    1  UNL1        0.0253
     21 C          63.1157   81.7400   10.4592 C.ar    1  UNL1        0.0314
     22 C          63.0837   80.2407   10.4945 C.ar    1  UNL1        0.1425
     23 F          63.3771   79.4547    9.2511 F       1  UNL1       -0.2041
     24 C          62.7582   79.5274   11.7733 C.ar    1  UNL1        0.0608
     25 C          62.4647   80.3134   13.0168 C.ar    1  UNL1        0.1599
     26 F          62.1392   79.6002   14.2956 F       1  UNL1       -0.2025
     27 C          62.4968   81.8126   12.9814 C.ar    1  UNL1        0.1104
     28 N          62.2033   82.5986   14.2248 N.ar    1  UNL1       -0.2257
     29 C          62.2354   84.0979   14.1895 C.ar    1  UNL1        0.1597
     30 N          61.9419   84.8838   15.4329 N.pl3   1  UNL1       -0.3402
     31 H          61.7283   84.4157   16.2722 H       1  UNL1        0.1438
     32 H          61.9629   85.8678   15.4097 H       1  UNL1        0.1438
@<TRIPOS>UNITY_ATOM_ATTR
15 1
charge -1
@<TRIPOS>BOND
     1     2     1    1
     2     2    17    1
     3    17    18    1
     4    18    19   ar
     5    19    20   ar
     6    20    21   ar
     7    21    22   ar
     8    22    23    1
     9    22    24   ar
    10    24    25   ar
    11    25    26    1
    12    25    27   ar
    13    27    28   ar
    14    28    29   ar
    15    29    30    1
    16     2     3    1
    17     3     4   ar
    18     4     5   ar
    19     5    14    1
    20    14    15   ar
    21    14    16   ar
    22     5     6   ar
    23     6     7   ar
    24     7     8   ar
    25     8     9    1
    26     9    10   ar
    27    10    11   ar
    28    11    12   ar
    29    12    13   ar
    30    29    18   ar
    31     8     3   ar
    32    13     9   ar
    33    27    20   ar
    34    30    31    1
    35    30    32    1
@<TRIPOS>MOLECULE
*****
 32 35 0 0 0
SMALL
GASTEIGER

@<TRIPOS>ATOM
      1 C          62.2603   88.5530    9.5576 C.3     1  UNL1        0.0523
      2 C          62.2788   88.2702   11.0305 C.3     1  UNL1        0.1898
      3 C          62.5063   86.8717   11.5230 C.ar    1  UNL1        0.0349
      4 C          63.3077   86.6363   12.7689 C.ar    1  UNL1        0.0018
      5 C          63.5351   85.2378   13.2612 C.ar    1  UNL1        0.0139
      6 C          62.9611   84.0747   12.5077 C.ar    1  UNL1        0.0027
      7 C          62.1597   84.3101   11.2618 C.ar    1  UNL1        0.0190
      8 C          61.9323   85.7086   10.7695 C.ar    1  UNL1        0.0822
      9 N          61.1308   85.9441    9.5235 N.ar    1  UNL1       -0.2283
     10 C          61.5181   85.5303    8.1347 C.ar    1  UNL1        0.1020
     11 C          60.4280   85.9651    7.2006 C.ar    1  UNL1        0.0431
     12 C          59.3670   86.6477    8.0120 C.ar    1  UNL1        0.1221
     13 N          59.8014   86.6347    9.4477 N.ar    1  UNL1       -0.1635
     14 C          64.3365   85.0024   14.5072 C.2     1  UNL1        0.0729
     15 O          64.4488   83.6192   15.0765 O.co2   1  UNL1       -0.5446
     16 O          65.0256   86.1501   15.1838 O.co2   1  UNL1       -0.5446
     17 O          62.0698   89.3859   12.0111 O.3     1  UNL1       -0.4719
     18 C          63.1640   90.3817   12.2586 C.ar    1  UNL1        0.1698
     19 C          63.9002   90.3777   13.5655 C.ar    1  UNL1        0.0414
     20 C          64.9943   91.3735   13.8130 C.ar    1  UNL1        0.0253
     21 C          65.7305   91.3695   15.1199 C.ar    1  UNL1        0.0314
     22 C          66.8247   92.3653   15.3675 C.ar    1  UNL1        0.1425
     23 F          67.5609   92.3612   16.6744 F       1  UNL1       -0.2041
     24 C          67.1827   93.3650   14.3081 C.ar    1  UNL1        0.0608
     25 C          66.4465   93.3690   13.0011 C.ar    1  UNL1        0.1599
     26 F          66.8045   94.3687   11.9417 F       1  UNL1       -0.2025
     27 C          65.3523   92.3732   12.7536 C.ar    1  UNL1        0.1104
     28 N          64.6162   92.3772   11.4467 N.ar    1  UNL1       -0.2257
     29 C          63.5220   91.3814   11.1992 C.ar    1  UNL1        0.1597
     30 N          62.7858   91.3854    9.8923 N.pl3   1  UNL1       -0.3402
     31 H          63.0208   92.0416    9.1970 H       1  UNL1        0.1438
     32 H          62.0677   90.7319    9.7298 H       1  UNL1        0.1438
@<TRIPOS>UNITY_ATOM_ATTR
15 1
charge -1
@<TRIPOS>BOND
     1     2     1    1
     2     2    17    1
     3    17    18    1
     4    18    19   ar
     5    19    20   ar
     6    20    21   ar
     7    21    22   ar
     8    22    23    1
     9    22    24   ar
    10    24    25   ar
    11    25    26    1
    12    25    27   ar
    13    27    28   ar
    14    28    29   ar
    15    29    30    1
    16     2     3    1
    17     3     4   ar
    18     4     5   ar
    19     5    14    1
    20    14    15   ar
    21    14    16   ar
    22     5     6   ar
    23     6     7   ar
    24     7     8   ar
    25     8     9    1
    26     9    10   ar
    27    10    11   ar
    28    11    12   ar
    29    12    13   ar
    30    29    18   ar
    31     8     3   ar
    32    13     9   ar
    33    27    20   ar
    34    30    31    1
    35    30    32    1
@<TRIPOS>MOLECULE
*****
 32 35 0 0 0
SMALL
GASTEIGER

@<TRIPOS>ATOM
      1 C          61.4248   89.8964   13.0818 C.3     1  UNL1        0.0523
      2 C          62.6412   89.8173   12.2077 C.3     1  UNL1        0.1898
      3 C          63.8124   90.7174   12.4690 C.ar    1  UNL1        0.0349
      4 C          64.2971   91.6478   11.3970 C.ar    1  UNL1        0.0018
      5 C          65.4682   92.5479   11.6583 C.ar    1  UNL1        0.0139
      6 C          66.1546   92.5175   12.9917 C.ar    1  UNL1        0.0027
      7 C          65.6699   91.5871   14.0637 C.ar    1  UNL1        0.0190
      8 C          64.4988   90.6870   13.8024 C.ar    1  UNL1        0.0822
      9 N          64.0141   89.7566   14.8745 N.ar    1  UNL1       -0.2283
     10 C          63.2786   90.1535   16.1201 C.ar    1  UNL1        0.1020
     11 C          62.9897   88.9081   16.9045 C.ar    1  UNL1        0.0431
     12 C          63.5466   87.7413   16.1438 C.ar    1  UNL1        0.1221
     13 N          64.1797   88.2658   14.8891 N.ar    1  UNL1       -0.1635
     14 C          65.9530   93.4784   10.5862 C.2     1  UNL1        0.0729
     15 O          67.0505   93.0474    9.6590 O.co2   1  UNL1       -0.5446
     16 O          65.3402   94.8398   10.4413 O.co2   1  UNL1       -0.5446
     17 O          62.6865   88.8381   11.0723 O.3     1  UNL1       -0.4719
     18 C          62.6986   87.3646   11.3527 C.ar    1  UNL1        0.1698
     19 C          63.3293   86.8457   12.6109 C.ar    1  UNL1        0.0414
     20 C          63.3414   85.3722   12.8913 C.ar    1  UNL1        0.0253
     21 C          63.9721   84.8534   14.1494 C.ar    1  UNL1        0.0314
     22 C          63.9842   83.3798   14.4299 C.ar    1  UNL1        0.1425
     23 F          64.6148   82.8610   15.6880 F       1  UNL1       -0.2041
     24 C          63.3656   82.4252   13.4521 C.ar    1  UNL1        0.0608
     25 C          62.7349   82.9441   12.1939 C.ar    1  UNL1        0.1599
     26 F          62.1163   81.9895   11.2161 F       1  UNL1       -0.2025
     27 C          62.7228   84.4176   11.9135 C.ar    1  UNL1        0.1104
     28 N          62.0922   84.9365   10.6553 N.ar    1  UNL1       -0.2257
     29 C          62.0800   86.4100   10.3749 C.ar    1  UNL1        0.1597
     30 N          61.4494   86.9289    9.1167 N.pl3   1  UNL1       -0.3402
     31 H          61.0434   86.3023    8.4750 H       1  UNL1        0.1438
     32 H          61.4414   87.8960    8.9327 H       1  UNL1        0.1438
@<TRIPOS>UNITY_ATOM_ATTR
15 1
charge -1
@<TRIPOS>BOND
     1     2     1    1
     2     2    17    1
     3    17    18    1
     4    18    19   ar
     5    19    20   ar
     6    20    21   ar
     7    21    22   ar
     8    22    23    1
     9    22    24   ar
    10    24    25   ar
    11    25    26    1
    12    25    27   ar
    13    27    28   ar
    14    28    29   ar
    15    29    30    1
    16     2     3    1
    17     3     4   ar
    18     4     5   ar
    19     5    14    1
    20    14    15   ar
    21    14    16   ar
    22     5     6   ar
    23     6     7   ar
    24     7     8   ar
    25     8     9    1
    26     9    10   ar
    27    10    11   ar
    28    11    12   ar
    29    12    13   ar
    30    29    18   ar
    31     8     3   ar
    32    13     9   ar
    33    27    20   ar
    34    30    31    1
    35    30    32    1
@<TRIPOS>MOLECULE
*****
 32 35 0 0 0
SMALL
GASTEIGER

@<TRIPOS>ATOM
      1 C          64.2102   84.2935   10.4390 C.3     1  UNL1        0.0523
      2 C          63.0842   83.8933   11.3455 C.3     1  UNL1        0.1898
      3 C          62.9877   82.4816   11.8435 C.ar    1  UNL1        0.0349
      4 C          62.8872   81.3472   10.8674 C.ar    1  UNL1        0.0018
      5 C          62.7907   79.9356   11.3653 C.ar    1  UNL1        0.0139
      6 C          62.7946   79.6584   12.8395 C.ar    1  UNL1        0.0027
      7 C          62.8951   80.7928   13.8157 C.ar    1  UNL1        0.0190
      8 C          62.9916   82.2044   13.3177 C.ar    1  UNL1        0.0822
      9 N          63.0921   83.3389   14.2939 N.ar    1  UNL1       -0.2283
     10 C          64.3412   84.0909   14.6463 C.ar    1  UNL1        0.1020
     11 C          63.9822   85.1373   15.6592 C.ar    1  UNL1        0.0431
     12 C          62.5111   85.0321   15.9329 C.ar    1  UNL1        0.1221
     13 N          61.9610   83.9207   15.0890 N.ar    1  UNL1       -0.1635
     14 C          62.6902   78.8011   10.3892 C.2     1  UNL1        0.0729
     15 O          62.8746   77.3887   10.8592 O.co2   1  UNL1       -0.5446
     16 O          62.4053   79.0791    8.9429 O.co2   1  UNL1       -0.5446
     17 O          62.0546   84.9047   11.7541 O.3     1  UNL1       -0.4719
     18 C          62.3506   86.3697   11.6270 C.ar    1  UNL1        0.1698
     19 C          63.0881   87.0835   12.7209 C.ar    1  UNL1        0.0414
     20 C          63.3842   88.5485   12.5938 C.ar    1  UNL1        0.0253
     21 C          64.1217   89.2622   13.6877 C.ar    1  UNL1        0.0314
     22 C          64.4177   90.7273   13.5606 C.ar    1  UNL1        0.1425
     23 F          65.1552   91.4410   14.6545 F       1  UNL1       -0.2041
     24 C          63.9763   91.4785   12.3396 C.ar    1  UNL1        0.0608
     25 C          63.2387   90.7647   11.2457 C.ar    1  UNL1        0.1599
     26 F          62.7972   91.5159   10.0247 F       1  UNL1       -0.2025
     27 C          62.9427   89.2997   11.3728 C.ar    1  UNL1        0.1104
     28 N          62.2052   88.5859   10.2790 N.ar    1  UNL1       -0.2257
     29 C          61.9091   87.1209   10.4060 C.ar    1  UNL1        0.1597
     30 N          61.1716   86.4071    9.3122 N.pl3   1  UNL1       -0.3402
     31 H          60.8819   86.9002    8.5108 H       1  UNL1        0.1438
     32 H          60.9773   85.4456    9.3956 H       1  UNL1        0.1438
@<TRIPOS>UNITY_ATOM_ATTR
15 1
charge -1
@<TRIPOS>BOND
     1     2     1    1
     2     2    17    1
     3    17    18    1
     4    18    19   ar
     5    19    20   ar
     6    20    21   ar
     7    21    22   ar
     8    22    23    1
     9    22    24   ar
    10    24    25   ar
    11    25    26    1
    12    25    27   ar
    13    27    28   ar
    14    28    29   ar
    15    29    30    1
    16     2     3    1
    17     3     4   ar
    18     4     5   ar
    19     5    14    1
    20    14    15   ar
    21    14    16   ar
    22     5     6   ar
    23     6     7   ar
    24     7     8   ar
    25     8     9    1
    26     9    10   ar
    27    10    11   ar
    28    11    12   ar
    29    12    13   ar
    30    29    18   ar
    31     8     3   ar
    32    13     9   ar
    33    27    20   ar
    34    30    31    1
    35    30    32    1
