@<TRIPOS>MOLECULE
*****
 29 31 0 0 0
SMALL
GASTEIGER

@<TRIPOS>ATOM
      1 N          63.2529   89.9765   12.2675 N.pl3   1  UNL1       -0.2872
      2 N          65.7006   93.5857   11.1573 N.3     1  UNL1       -0.2717
      3 C          65.7752   93.0277   12.5476 C.3     1  UNL1        0.0738
      4 C          64.9593   91.8246   12.9177 C.3     1  UNL1        0.0374
      5 C          64.0688   91.1796   11.8975 C.3     1  UNL1        0.0800
      6 C          63.9942   91.7376   10.5072 C.3     1  UNL1        0.0374
      7 C          64.8101   92.9407   10.1371 C.3     1  UNL1        0.0738
      8 C          66.5165   94.7888   10.7873 C.3     1  UNL1        0.0845
      9 C          66.3507   96.0705   11.5486 C.3     1  UNL1        0.0199
     10 C          67.2631   95.5001    8.4026 C.3     1  UNL1        0.0332
     11 C          67.4982   94.7101    9.6559 C.3     1  UNL1        0.1251
     12 O          68.7150   93.8415    9.7777 O.3     1  UNL1       -0.3831
     13 H          69.2401   93.9046    8.9646 H       1  UNL1        0.2104
     14 C          62.3330   89.3550   11.2589 C.ar    1  UNL1        0.0515
     15 C          61.1360   90.1139   10.7676 C.ar    1  UNL1        0.0148
     16 C          60.2161   89.4924    9.7589 C.ar    1  UNL1        0.0051
     17 C          60.4931   88.1120    9.2415 C.ar    1  UNL1        0.0715
     18 C          61.6900   87.3531    9.7328 C.ar    1  UNL1        0.0051
     19 C          62.6100   87.9746   10.7415 C.ar    1  UNL1        0.0148
     20 C          59.5731   87.4905    8.2328 C.3     1  UNL1        0.4186
     21 F          58.6531   86.8691    7.2242 F       1  UNL1       -0.1659
     22 F          59.9529   86.1261    8.7270 F       1  UNL1       -0.1659
     23 F          59.1932   88.8548    7.7387 F       1  UNL1       -0.1659
     24 C          63.3570   89.3949   13.6463 C.ar    1  UNL1        0.0710
     25 C          64.1059   88.1139   13.8654 C.ar    1  UNL1        0.0180
     26 C          64.2100   87.5323   15.2442 C.ar    1  UNL1        0.0220
     27 C          63.5650   88.2318   16.4038 C.ar    1  UNL1        0.0990
     28 N          62.8161   89.5128   16.1847 N.ar    1  UNL1       -0.2410
     29 C          62.7120   90.0944   14.8060 C.ar    1  UNL1        0.1136
@<TRIPOS>BOND
     1    10    11    1
     2    11    12    1
     3    11     8    1
     4     8     9    1
     5     8     2    1
     6     2     3    1
     7     3     4    1
     8     4     5    1
     9     5     1    1
    10     1    14    1
    11    14    15   ar
    12    15    16   ar
    13    16    17   ar
    14    17    20    1
    15    20    21    1
    16    20    22    1
    17    20    23    1
    18    17    18   ar
    19    18    19   ar
    20     1    24    1
    21    24    25   ar
    22    25    26   ar
    23    26    27   ar
    24    27    28   ar
    25    28    29   ar
    26     5     6    1
    27     6     7    1
    28     7     2    1
    29    19    14   ar
    30    29    24   ar
    31    12    13    1
@<TRIPOS>MOLECULE
*****
 29 31 0 0 0
SMALL
GASTEIGER

@<TRIPOS>ATOM
      1 N          62.8402   88.3059   12.0382 N.pl3   1  UNL1       -0.2872
      2 N          65.2599   91.6310   13.8654 N.3     1  UNL1       -0.2717
      3 C          65.0371   90.3589   14.6283 C.3     1  UNL1        0.0738
      4 C          64.2306   89.2505   14.0192 C.3     1  UNL1        0.0374
      5 C          63.6468   89.4142   12.6473 C.3     1  UNL1        0.0800
      6 C          63.8696   90.6864   11.8844 C.3     1  UNL1        0.0374
      7 C          64.6761   91.7947   12.4935 C.3     1  UNL1        0.0738
      8 C          66.0665   92.7393   14.4745 C.3     1  UNL1        0.0845
      9 C          66.4841   93.9110   13.6363 C.3     1  UNL1        0.0199
     10 C          67.8855   92.4342   16.3042 C.3     1  UNL1        0.0332
     11 C          66.4554   92.6760   15.9218 C.3     1  UNL1        0.1251
     12 O          65.4142   92.8545   16.9867 O.3     1  UNL1       -0.3831
     13 H          65.8301   92.7855   17.8603 H       1  UNL1        0.2104
     14 C          63.0690   86.8875   12.4692 C.ar    1  UNL1        0.0515
     15 C          62.4738   85.7587   11.6808 C.ar    1  UNL1        0.0148
     16 C          62.7025   84.3403   12.1118 C.ar    1  UNL1        0.0051
     17 C          63.5265   84.0507   13.3313 C.ar    1  UNL1        0.0715
     18 C          64.1217   85.1794   14.1198 C.ar    1  UNL1        0.0051
     19 C          63.8929   86.5979   13.6887 C.ar    1  UNL1        0.0148
     20 C          63.7553   82.6322   13.7624 C.3     1  UNL1        0.4186
     21 F          63.9840   81.2138   14.1934 F       1  UNL1       -0.1659
     22 F          62.8989   82.8617   14.9723 F       1  UNL1       -0.1659
     23 F          64.6117   82.4027   12.5525 F       1  UNL1       -0.1659
     24 C          61.8049   88.6159   10.9980 C.ar    1  UNL1        0.0710
     25 C          61.8048   87.8727    9.6951 C.ar    1  UNL1        0.0180
     26 C          60.7693   88.1828    8.6549 C.ar    1  UNL1        0.0220
     27 C          59.7341   89.2359    8.9177 C.ar    1  UNL1        0.0990
     28 N          59.7342   89.9791   10.2207 N.ar    1  UNL1       -0.2410
     29 C          60.7696   89.6691   11.2608 C.ar    1  UNL1        0.1136
@<TRIPOS>BOND
     1    10    11    1
     2    11    12    1
     3    11     8    1
     4     8     9    1
     5     8     2    1
     6     2     3    1
     7     3     4    1
     8     4     5    1
     9     5     1    1
    10     1    14    1
    11    14    15   ar
    12    15    16   ar
    13    16    17   ar
    14    17    20    1
    15    20    21    1
    16    20    22    1
    17    20    23    1
    18    17    18   ar
    19    18    19   ar
    20     1    24    1
    21    24    25   ar
    22    25    26   ar
    23    26    27   ar
    24    27    28   ar
    25    28    29   ar
    26     5     6    1
    27     6     7    1
    28     7     2    1
    29    19    14   ar
    30    29    24   ar
    31    12    13    1
@<TRIPOS>MOLECULE
*****
 29 31 0 0 0
SMALL
GASTEIGER

@<TRIPOS>ATOM
      1 N          62.3009   86.5002   11.5408 N.pl3   1  UNL1       -0.2872
      2 N          64.2246   89.9945   13.6239 N.3     1  UNL1       -0.2717
      3 C          63.4529   90.2095   12.3558 C.3     1  UNL1        0.0738
      4 C          62.8116   89.0447   11.6614 C.3     1  UNL1        0.0374
      5 C          62.9421   87.6650   12.2351 C.3     1  UNL1        0.0800
      6 C          63.7139   87.4500   13.5032 C.3     1  UNL1        0.0374
      7 C          64.3551   88.6147   14.1976 C.3     1  UNL1        0.0738
      8 C          64.8659   91.1592   14.3182 C.3     1  UNL1        0.0845
      9 C          64.5478   91.4428   15.7564 C.3     1  UNL1        0.0199
     10 C          67.3032   91.8239   13.7118 C.3     1  UNL1        0.0332
     11 C          65.8252   92.0403   13.5745 C.3     1  UNL1        0.1251
     12 O          65.3067   93.1379   12.6933 O.3     1  UNL1       -0.3831
     13 H          66.0528   93.6085   12.2899 H       1  UNL1        0.2104
     14 C          62.4858   85.1121   12.0782 C.ar    1  UNL1        0.0515
     15 C          62.2789   84.8395   13.5387 C.ar    1  UNL1        0.0148
     16 C          62.4639   83.4514   14.0761 C.ar    1  UNL1        0.0051
     17 C          62.8558   82.3358   13.1531 C.ar    1  UNL1        0.0715
     18 C          63.0628   82.6084   11.6927 C.ar    1  UNL1        0.0051
     19 C          62.8778   83.9965   11.1552 C.ar    1  UNL1        0.0148
     20 C          63.0408   80.9476   13.6906 C.3     1  UNL1        0.4186
     21 F          63.2259   79.5595   14.2280 F       1  UNL1       -0.1659
     22 F          61.5856   80.8929   14.0502 F       1  UNL1       -0.1659
     23 F          64.4960   81.0024   13.3310 F       1  UNL1       -0.1659
     24 C          61.4746   86.7236   10.3090 C.ar    1  UNL1        0.0710
     25 C          61.8730   86.0833    9.0123 C.ar    1  UNL1        0.0180
     26 C          61.0467   86.3068    7.7805 C.ar    1  UNL1        0.0220
     27 C          59.8220   87.1704    7.8453 C.ar    1  UNL1        0.0990
     28 N          59.4236   87.8106    9.1420 N.ar    1  UNL1       -0.2410
     29 C          60.2498   87.5873   10.3738 C.ar    1  UNL1        0.1136
@<TRIPOS>BOND
     1    10    11    1
     2    11    12    1
     3    11     8    1
     4     8     9    1
     5     8     2    1
     6     2     3    1
     7     3     4    1
     8     4     5    1
     9     5     1    1
    10     1    14    1
    11    14    15   ar
    12    15    16   ar
    13    16    17   ar
    14    17    20    1
    15    20    21    1
    16    20    22    1
    17    20    23    1
    18    17    18   ar
    19    18    19   ar
    20     1    24    1
    21    24    25   ar
    22    25    26   ar
    23    26    27   ar
    24    27    28   ar
    25    28    29   ar
    26     5     6    1
    27     6     7    1
    28     7     2    1
    29    19    14   ar
    30    29    24   ar
    31    12    13    1
@<TRIPOS>MOLECULE
*****
 29 31 0 0 0
SMALL
GASTEIGER

@<TRIPOS>ATOM
      1 N          62.3036   86.5008   11.5296 N.pl3   1  UNL1       -0.2872
      2 N          64.2180   89.9936   13.6238 N.3     1  UNL1       -0.2717
      3 C          64.3486   88.6130   14.1955 C.3     1  UNL1        0.0738
      4 C          63.7105   87.4487   13.4974 C.3     1  UNL1        0.0374
      5 C          62.9417   87.6651   12.2277 C.3     1  UNL1        0.0800
      6 C          62.8112   89.0457   11.6560 C.3     1  UNL1        0.0374
      7 C          63.4493   90.2099   12.3541 C.3     1  UNL1        0.0738
      8 C          64.8561   91.1578   14.3219 C.3     1  UNL1        0.0845
      9 C          64.5287   91.4427   15.7577 C.3     1  UNL1        0.0199
     10 C          67.2985   91.8231   13.7369 C.3     1  UNL1        0.0332
     11 C          65.8217   92.0372   13.5842 C.3     1  UNL1        0.1251
     12 O          65.3105   93.1308   12.6937 O.3     1  UNL1       -0.3831
     13 H          66.0600   93.6007   12.2958 H       1  UNL1        0.2104
     14 C          62.4904   85.1118   12.0640 C.ar    1  UNL1        0.0515
     15 C          62.8402   83.9901   11.1314 C.ar    1  UNL1        0.0148
     16 C          63.0269   82.6011   11.6658 C.ar    1  UNL1        0.0051
     17 C          62.8639   82.3336   13.1327 C.ar    1  UNL1        0.0715
     18 C          62.5141   83.4551   14.0653 C.ar    1  UNL1        0.0051
     19 C          62.3274   84.8443   13.5309 C.ar    1  UNL1        0.0148
     20 C          63.0507   80.9444   13.6671 C.3     1  UNL1        0.4186
     21 F          63.2375   79.5554   14.2014 F       1  UNL1       -0.1659
     22 F          61.5840   80.8641   13.9709 F       1  UNL1       -0.1659
     23 F          64.5174   81.0248   13.3632 F       1  UNL1       -0.1659
     24 C          61.4787   86.7256   10.2972 C.ar    1  UNL1        0.0710
     25 C          61.8783   86.0864    9.0003 C.ar    1  UNL1        0.0180
     26 C          61.0533   86.3113    7.7678 C.ar    1  UNL1        0.0220
     27 C          59.8289   87.1753    7.8322 C.ar    1  UNL1        0.0990
     28 N          59.4293   87.8145    9.1290 N.ar    1  UNL1       -0.2410
     29 C          60.2542   87.5897   10.3615 C.ar    1  UNL1        0.1136
@<TRIPOS>BOND
     1    10    11    1
     2    11    12    1
     3    11     8    1
     4     8     9    1
     5     8     2    1
     6     2     3    1
     7     3     4    1
     8     4     5    1
     9     5     1    1
    10     1    14    1
    11    14    15   ar
    12    15    16   ar
    13    16    17   ar
    14    17    20    1
    15    20    21    1
    16    20    22    1
    17    20    23    1
    18    17    18   ar
    19    18    19   ar
    20     1    24    1
    21    24    25   ar
    22    25    26   ar
    23    26    27   ar
    24    27    28   ar
    25    28    29   ar
    26     5     6    1
    27     6     7    1
    28     7     2    1
    29    19    14   ar
    30    29    24   ar
    31    12    13    1
@<TRIPOS>MOLECULE
*****
 29 31 0 0 0
SMALL
GASTEIGER

@<TRIPOS>ATOM
      1 N          63.0733   88.9834   12.4320 N.pl3   1  UNL1       -0.2872
      2 N          63.7028   84.6540   13.4856 N.3     1  UNL1       -0.2717
      3 C          62.9201   85.0215   12.2599 C.3     1  UNL1        0.0738
      4 C          62.7103   86.4646   11.9087 C.3     1  UNL1        0.0374
      5 C          63.2832   87.5402   12.7832 C.3     1  UNL1        0.0800
      6 C          64.0658   87.1728   14.0088 C.3     1  UNL1        0.0374
      7 C          64.2756   85.7296   14.3600 C.3     1  UNL1        0.0738
      8 C          63.9126   83.2108   13.8368 C.3     1  UNL1        0.0845
      9 C          63.9968   82.7936   15.2750 C.3     1  UNL1        0.0199
     10 C          63.0699   81.0413   12.6822 C.3     1  UNL1        0.0332
     11 C          64.0381   82.1850   12.7497 C.3     1  UNL1        0.1251
     12 O          65.1320   82.3028   11.7300 O.3     1  UNL1       -0.3831
     13 H          65.0711   81.5645   11.1038 H       1  UNL1        0.2104
     14 C          63.9891   90.0320   12.9903 C.ar    1  UNL1        0.0515
     15 C          64.5858   89.8568   14.3554 C.ar    1  UNL1        0.0148
     16 C          65.5015   90.9054   14.9138 C.ar    1  UNL1        0.0051
     17 C          65.8206   92.1291   14.1072 C.ar    1  UNL1        0.0715
     18 C          65.2240   92.3043   12.7422 C.ar    1  UNL1        0.0051
     19 C          64.3082   91.2557   12.1837 C.ar    1  UNL1        0.0148
     20 C          66.7364   93.1777   14.6657 C.3     1  UNL1        0.4186
     21 F          67.6522   94.2263   15.2241 F       1  UNL1       -0.1659
     22 F          66.3824   94.0917   13.5302 F       1  UNL1       -0.1659
     23 F          67.0905   92.2638   15.8011 F       1  UNL1       -0.1659
     24 C          61.9478   89.3779   11.5224 C.ar    1  UNL1        0.0710
     25 C          62.0565   89.1358   10.0460 C.ar    1  UNL1        0.0180
     26 C          60.9309   89.5304    9.1364 C.ar    1  UNL1        0.0220
     27 C          59.6966   90.1671    9.7032 C.ar    1  UNL1        0.0990
     28 N          59.5879   90.4092   11.1795 N.ar    1  UNL1       -0.2410
     29 C          60.7135   90.0146   12.0891 C.ar    1  UNL1        0.1136
@<TRIPOS>BOND
     1    10    11    1
     2    11    12    1
     3    11     8    1
     4     8     9    1
     5     8     2    1
     6     2     3    1
     7     3     4    1
     8     4     5    1
     9     5     1    1
    10     1    14    1
    11    14    15   ar
    12    15    16   ar
    13    16    17   ar
    14    17    20    1
    15    20    21    1
    16    20    22    1
    17    20    23    1
    18    17    18   ar
    19    18    19   ar
    20     1    24    1
    21    24    25   ar
    22    25    26   ar
    23    26    27   ar
    24    27    28   ar
    25    28    29   ar
    26     5     6    1
    27     6     7    1
    28     7     2    1
    29    19    14   ar
    30    29    24   ar
    31    12    13    1
@<TRIPOS>MOLECULE
*****
 29 31 0 0 0
SMALL
GASTEIGER

@<TRIPOS>ATOM
      1 N          62.8440   88.0765   12.2477 N.pl3   1  UNL1       -0.2872
      2 N          64.8869   91.2820   14.6564 N.3     1  UNL1       -0.2717
      3 C          64.7669   91.4240   13.1680 C.3     1  UNL1        0.0738
      4 C          64.0859   90.3555   12.3651 C.3     1  UNL1        0.0374
      5 C          63.5250   89.1450   13.0506 C.3     1  UNL1        0.0800
      6 C          63.6450   89.0030   14.5390 C.3     1  UNL1        0.0374
      7 C          64.3260   90.0714   15.3419 C.3     1  UNL1        0.0738
      8 C          65.5679   92.3504   15.4593 C.3     1  UNL1        0.0845
      9 C          65.1898   92.5656   16.8948 C.3     1  UNL1        0.0199
     10 C          68.0755   92.8605   15.0101 C.3     1  UNL1        0.0332
     11 C          66.6269   93.2038   14.8266 C.3     1  UNL1        0.1251
     12 O          66.2373   94.4005   14.0104 O.3     1  UNL1       -0.3831
     13 H          67.0360   94.8380   13.6764 H       1  UNL1        0.2104
     14 C          63.0963   86.6306   12.5568 C.ar    1  UNL1        0.0515
     15 C          64.0034   86.2531   13.6903 C.ar    1  UNL1        0.0148
     16 C          64.2556   84.8071   13.9994 C.ar    1  UNL1        0.0051
     17 C          63.6008   83.7386   13.1751 C.ar    1  UNL1        0.0715
     18 C          62.6937   84.1161   12.0416 C.ar    1  UNL1        0.0051
     19 C          62.4415   85.5621   11.7325 C.ar    1  UNL1        0.0148
     20 C          63.8531   82.2926   13.4842 C.3     1  UNL1        0.4186
     21 F          64.1053   80.8467   13.7934 F       1  UNL1       -0.1659
     22 F          64.7475   82.1921   12.2843 F       1  UNL1       -0.1659
     23 F          62.9587   82.3932   14.6842 F       1  UNL1       -0.1659
     24 C          61.9108   88.4540   11.1357 C.ar    1  UNL1        0.0710
     25 C          60.9568   89.5978   11.3129 C.ar    1  UNL1        0.0180
     26 C          60.0235   89.9753   10.2008 C.ar    1  UNL1        0.0220
     27 C          60.0443   89.2089    8.9116 C.ar    1  UNL1        0.0990
     28 N          60.9984   88.0650    8.7344 N.ar    1  UNL1       -0.2410
     29 C          61.9316   87.6876    9.8464 C.ar    1  UNL1        0.1136
@<TRIPOS>BOND
     1    10    11    1
     2    11    12    1
     3    11     8    1
     4     8     9    1
     5     8     2    1
     6     2     3    1
     7     3     4    1
     8     4     5    1
     9     5     1    1
    10     1    14    1
    11    14    15   ar
    12    15    16   ar
    13    16    17   ar
    14    17    20    1
    15    20    21    1
    16    20    22    1
    17    20    23    1
    18    17    18   ar
    19    18    19   ar
    20     1    24    1
    21    24    25   ar
    22    25    26   ar
    23    26    27   ar
    24    27    28   ar
    25    28    29   ar
    26     5     6    1
    27     6     7    1
    28     7     2    1
    29    19    14   ar
    30    29    24   ar
    31    12    13    1
@<TRIPOS>MOLECULE
*****
 29 31 0 0 0
SMALL
GASTEIGER

@<TRIPOS>ATOM
      1 N          62.2240   88.9139   12.0100 N.pl3   1  UNL1       -0.2872
      2 N          65.5713   91.6859   13.1769 N.3     1  UNL1       -0.2717
      3 C          65.1384   90.5969   14.1132 C.3     1  UNL1        0.0738
      4 C          64.0226   89.6729   13.7242 C.3     1  UNL1        0.0374
      5 C          63.3397   89.8379   12.3990 C.3     1  UNL1        0.0800
      6 C          63.7726   90.9268   11.4626 C.3     1  UNL1        0.0374
      7 C          64.8884   91.8508   11.8516 C.3     1  UNL1        0.0738
      8 C          66.6871   92.6098   13.5658 C.3     1  UNL1        0.0845
      9 C          66.5180   94.0931   13.4199 C.3     1  UNL1        0.0199
     10 C          68.2037   91.9872   15.5813 C.3     1  UNL1        0.0332
     11 C          67.9721   92.0506   14.1006 C.3     1  UNL1        0.1251
     12 O          69.0255   91.5546   13.1548 O.3     1  UNL1       -0.3831
     13 H          69.7863   91.2286   13.6604 H       1  UNL1        0.2104
     14 C          62.5181   87.4813   11.6771 C.ar    1  UNL1        0.0515
     15 C          63.0795   86.5676   12.7260 C.ar    1  UNL1        0.0148
     16 C          63.3737   85.1349   12.3931 C.ar    1  UNL1        0.0051
     17 C          63.1065   84.6158   11.0114 C.ar    1  UNL1        0.0715
     18 C          62.5451   85.5294    9.9625 C.ar    1  UNL1        0.0051
     19 C          62.2509   86.9622   10.2954 C.ar    1  UNL1        0.0148
     20 C          63.4007   83.1831   10.6785 C.3     1  UNL1        0.4186
     21 F          63.6948   81.7504   10.3457 F       1  UNL1       -0.1659
     22 F          64.4144   83.6264    9.6658 F       1  UNL1       -0.1659
     23 F          62.3870   82.7397   11.6913 F       1  UNL1       -0.1659
     24 C          60.8140   89.4226   11.9539 C.ar    1  UNL1        0.0710
     25 C          59.7198   88.6795   12.6615 C.ar    1  UNL1        0.0180
     26 C          58.3098   89.1883   12.6054 C.ar    1  UNL1        0.0220
     27 C          57.9940   90.4401   11.8418 C.ar    1  UNL1        0.0990
     28 N          59.0882   91.1832   11.1342 N.ar    1  UNL1       -0.2410
     29 C          60.4981   90.6745   11.1903 C.ar    1  UNL1        0.1136
@<TRIPOS>BOND
     1    10    11    1
     2    11    12    1
     3    11     8    1
     4     8     9    1
     5     8     2    1
     6     2     3    1
     7     3     4    1
     8     4     5    1
     9     5     1    1
    10     1    14    1
    11    14    15   ar
    12    15    16   ar
    13    16    17   ar
    14    17    20    1
    15    20    21    1
    16    20    22    1
    17    20    23    1
    18    17    18   ar
    19    18    19   ar
    20     1    24    1
    21    24    25   ar
    22    25    26   ar
    23    26    27   ar
    24    27    28   ar
    25    28    29   ar
    26     5     6    1
    27     6     7    1
    28     7     2    1
    29    19    14   ar
    30    29    24   ar
    31    12    13    1
@<TRIPOS>MOLECULE
*****
 29 31 0 0 0
SMALL
GASTEIGER

@<TRIPOS>ATOM
      1 N          62.8175   94.0273   -2.4555 N.pl3   1  UNL1       -0.2872
      2 N          58.4192   93.1266   -2.7603 N.3     1  UNL1       -0.2717
      3 C          59.1617   92.8190   -1.4938 C.3     1  UNL1        0.0738
      4 C          60.6278   93.1193   -1.3922 C.3     1  UNL1        0.0374
      5 C          61.3514   93.7270   -2.5571 C.3     1  UNL1        0.0800
      6 C          60.6089   94.0345   -3.8236 C.3     1  UNL1        0.0374
      7 C          59.1428   93.7343   -3.9252 C.3     1  UNL1        0.0738
      8 C          56.9530   92.8263   -2.8619 C.3     1  UNL1        0.0845
      9 C          55.9907   93.4519   -1.8963 C.3     1  UNL1        0.0199
     10 C          55.9931   92.4529   -5.2471 C.3     1  UNL1        0.0332
     11 C          56.4493   91.9005   -3.9292 C.3     1  UNL1        0.1251
     12 O          56.4016   90.4223   -3.6786 O.3     1  UNL1       -0.3831
     13 H          56.0535   89.9723   -4.4641 H       1  UNL1        0.2104
     14 C          63.4037   94.4690   -1.1474 C.ar    1  UNL1        0.0515
     15 C          64.3074   93.5486   -0.3815 C.ar    1  UNL1        0.0148
     16 C          64.8936   93.9903    0.9266 C.ar    1  UNL1        0.0051
     17 C          64.5762   95.3524    1.4690 C.ar    1  UNL1        0.0715
     18 C          63.6727   96.2727    0.7032 C.ar    1  UNL1        0.0051
     19 C          63.0864   95.8310   -0.6050 C.ar    1  UNL1        0.0148
     20 C          65.1625   95.7940    2.7771 C.3     1  UNL1        0.4186
     21 F          65.7488   96.2357    4.0852 F       1  UNL1       -0.1659
     22 F          64.3768   94.7322    3.4878 F       1  UNL1       -0.1659
     23 F          65.9482   96.8559    2.0665 F       1  UNL1       -0.1659
     24 C          63.6975   93.8858   -3.6620 C.ar    1  UNL1        0.0710
     25 C          64.0989   92.5225   -4.1418 C.ar    1  UNL1        0.0180
     26 C          64.9788   92.3811   -5.3484 C.ar    1  UNL1        0.0220
     27 C          65.4573   93.6029   -6.0750 C.ar    1  UNL1        0.0990
     28 N          65.0559   94.9662   -5.5952 N.ar    1  UNL1       -0.2410
     29 C          64.1760   95.1077   -4.3887 C.ar    1  UNL1        0.1136
@<TRIPOS>BOND
     1    10    11    1
     2    11    12    1
     3    11     8    1
     4     8     9    1
     5     8     2    1
     6     2     3    1
     7     3     4    1
     8     4     5    1
     9     5     1    1
    10     1    14    1
    11    14    15   ar
    12    15    16   ar
    13    16    17   ar
    14    17    20    1
    15    20    21    1
    16    20    22    1
    17    20    23    1
    18    17    18   ar
    19    18    19   ar
    20     1    24    1
    21    24    25   ar
    22    25    26   ar
    23    26    27   ar
    24    27    28   ar
    25    28    29   ar
    26     5     6    1
    27     6     7    1
    28     7     2    1
    29    19    14   ar
    30    29    24   ar
    31    12    13    1
