@<TRIPOS>MOLECULE
*****
 27 29 0 0 0
SMALL
GASTEIGER

@<TRIPOS>ATOM
      1 C          63.2064   89.5064   16.5815 C.3     1  UNL1        0.0521
      2 C          63.4647   90.0199   15.1959 C.ar    1  UNL1        0.0606
      3 C          64.6966   90.8275   14.9129 C.ar    1  UNL1        0.0290
      4 C          64.9549   91.3410   13.5275 C.ar    1  UNL1        0.0475
      5 C          63.9813   91.0468   12.4249 C.ar    1  UNL1        0.0309
      6 C          64.2396   91.5602   11.0394 C.ar    1  UNL1        0.0027
      7 C          63.2661   91.2660    9.9369 C.ar    1  UNL1        0.0003
      8 C          62.0341   90.4584   10.2199 C.ar    1  UNL1        0.0060
      9 C          61.7758   89.9449   11.6054 C.ar    1  UNL1        0.0708
     10 C          62.7494   90.2391   12.7079 C.ar    1  UNL1        0.0864
     11 N          62.4911   89.7257   14.0934 N.ar    1  UNL1       -0.2494
     12 C          60.5439   89.1373   11.8884 C.2     1  UNL1        0.2442
     13 N          59.4397   89.7199   12.7198 N.am    1  UNL1       -0.3253
     14 O          60.4162   87.7470   11.3400 O.2     1  UNL1       -0.2703
     15 H          59.5235   90.6324   13.0797 H       1  UNL1        0.1453
     16 H          58.6312   89.1898   12.9055 H       1  UNL1        0.1453
     17 N          66.1869   92.1486   13.2445 N.pl3   1  UNL1       -0.3290
     18 H          67.0751   91.7842   13.4622 H       1  UNL1        0.1471
     19 C          66.0654   93.5114   12.6298 C.3     1  UNL1        0.1152
     20 C          66.6963   93.7926   11.2983 C.ar    1  UNL1        0.0088
     21 C          67.3538   92.6840   10.5308 C.ar    1  UNL1       -0.0017
     22 C          67.9846   92.9652    9.1993 C.ar    1  UNL1        0.0007
     23 C          67.9580   94.3549    8.6352 C.ar    1  UNL1        0.0122
     24 C          67.3005   95.4633    9.4026 C.ar    1  UNL1        0.0679
     25 CL         67.2739   96.8530    8.8386 Cl      1  UNL1       -0.0814
     26 C          66.6697   95.1822   10.7342 C.ar    1  UNL1        0.0658
     27 CL         66.0122   96.2907   11.5016 Cl      1  UNL1       -0.0816
@<TRIPOS>BOND
     1     1     2    1
     2     2     3   ar
     3     3     4   ar
     4     4    17    1
     5    17    19    1
     6    19    20    1
     7    20    21   ar
     8    21    22   ar
     9    22    23   ar
    10    23    24   ar
    11    24    25    1
    12    24    26   ar
    13    26    27    1
    14     4     5   ar
    15     5     6   ar
    16     6     7   ar
    17     7     8   ar
    18     8     9   ar
    19     9    12    1
    20    12    13   am
    21    12    14    2
    22     9    10   ar
    23    10    11   ar
    24    11     2   ar
    25    26    20   ar
    26    10     5   ar
    27    17    18    1
    28    13    15    1
    29    13    16    1
@<TRIPOS>MOLECULE
*****
 27 29 0 0 0
SMALL
GASTEIGER

@<TRIPOS>ATOM
      1 C          63.4081   89.3957   16.0543 C.3     1  UNL1        0.0521
      2 C          63.7953   90.1631   14.8249 C.ar    1  UNL1        0.0606
      3 C          63.0365   89.9640   13.5465 C.ar    1  UNL1        0.0290
      4 C          63.4237   90.7314   12.3172 C.ar    1  UNL1        0.0475
      5 C          64.5698   91.6979   12.3663 C.ar    1  UNL1        0.0309
      6 C          64.9570   92.4652   11.1370 C.ar    1  UNL1        0.0027
      7 C          66.1031   93.4316   11.1862 C.ar    1  UNL1        0.0003
      8 C          66.8620   93.6307   12.4647 C.ar    1  UNL1        0.0060
      9 C          66.4748   92.8634   13.6939 C.ar    1  UNL1        0.0708
     10 C          65.3287   91.8969   13.6448 C.ar    1  UNL1        0.0864
     11 N          64.9414   91.1295   14.8741 N.ar    1  UNL1       -0.2494
     12 C          67.2336   93.0624   14.9724 C.2     1  UNL1        0.2442
     13 N          66.4964   93.1570   16.2753 N.am    1  UNL1       -0.3253
     14 O          68.7298   93.1670   14.9480 O.2     1  UNL1       -0.2703
     15 H          65.5144   93.0884   16.2913 H       1  UNL1        0.1453
     16 H          66.9945   93.2877   17.1144 H       1  UNL1        0.1453
     17 N          62.6648   90.5323   11.0387 N.pl3   1  UNL1       -0.3290
     18 H          62.9858   90.9478   10.2059 H       1  UNL1        0.1471
     19 C          61.4168   89.7002   11.0291 C.3     1  UNL1        0.1152
     20 C          61.4651   88.2813   10.5449 C.ar    1  UNL1        0.0088
     21 C          62.2880   87.2654   11.2804 C.ar    1  UNL1       -0.0017
     22 C          62.3363   85.8465   10.7962 C.ar    1  UNL1        0.0007
     23 C          61.5618   85.4436    9.5764 C.ar    1  UNL1        0.0122
     24 C          60.7390   86.4595    8.8409 C.ar    1  UNL1        0.0679
     25 CL         59.9645   86.0565    7.6211 Cl      1  UNL1       -0.0814
     26 C          60.6907   87.8783    9.3251 C.ar    1  UNL1        0.0658
     27 CL         59.8679   88.8942    8.5896 Cl      1  UNL1       -0.0816
@<TRIPOS>BOND
     1     1     2    1
     2     2     3   ar
     3     3     4   ar
     4     4    17    1
     5    17    19    1
     6    19    20    1
     7    20    21   ar
     8    21    22   ar
     9    22    23   ar
    10    23    24   ar
    11    24    25    1
    12    24    26   ar
    13    26    27    1
    14     4     5   ar
    15     5     6   ar
    16     6     7   ar
    17     7     8   ar
    18     8     9   ar
    19     9    12    1
    20    12    13   am
    21    12    14    2
    22     9    10   ar
    23    10    11   ar
    24    11     2   ar
    25    26    20   ar
    26    10     5   ar
    27    17    18    1
    28    13    15    1
    29    13    16    1
@<TRIPOS>MOLECULE
*****
 27 29 0 0 0
SMALL
GASTEIGER

@<TRIPOS>ATOM
      1 C          61.2492   86.0667    9.5718 C.3     1  UNL1        0.0521
      2 C          62.0025   86.6692   10.7205 C.ar    1  UNL1        0.0606
      3 C          62.4636   85.8006   11.8532 C.ar    1  UNL1        0.0290
      4 C          63.2169   86.4030   13.0018 C.ar    1  UNL1        0.0475
      5 C          63.5092   87.8742   13.0179 C.ar    1  UNL1        0.0309
      6 C          64.2626   88.4767   14.1666 C.ar    1  UNL1        0.0027
      7 C          64.5549   89.9478   14.1826 C.ar    1  UNL1        0.0003
      8 C          64.0938   90.8165   13.0500 C.ar    1  UNL1        0.0060
      9 C          63.3405   90.2140   11.9014 C.ar    1  UNL1        0.0708
     10 C          63.0482   88.7429   11.8853 C.ar    1  UNL1        0.0864
     11 N          62.2948   88.1404   10.7366 N.ar    1  UNL1       -0.2494
     12 C          62.8794   91.0827   10.7687 C.2     1  UNL1        0.2442
     13 N          61.5137   90.8860   10.1806 N.am    1  UNL1       -0.3253
     14 O          63.7841   92.1481   10.2243 O.2     1  UNL1       -0.2703
     15 H          60.9199   90.1868   10.5379 H       1  UNL1        0.1453
     16 H          61.2111   91.4562    9.4372 H       1  UNL1        0.1453
     17 N          63.6780   85.5344   14.1345 N.pl3   1  UNL1       -0.3290
     18 H          63.4900   85.7971   15.0644 H       1  UNL1        0.1471
     19 C          64.4254   84.2653   13.8502 C.3     1  UNL1        0.1152
     20 C          63.6746   83.0160   13.4958 C.ar    1  UNL1        0.0088
     21 C          62.8151   82.3406   14.5231 C.ar    1  UNL1       -0.0017
     22 C          62.0644   81.0913   14.1687 C.ar    1  UNL1        0.0007
     23 C          62.1731   80.5174   12.7871 C.ar    1  UNL1        0.0122
     24 C          63.0325   81.1928   11.7599 C.ar    1  UNL1        0.0679
     25 CL         63.1413   80.6189   10.3782 Cl      1  UNL1       -0.0814
     26 C          63.7833   82.4421   12.1143 C.ar    1  UNL1        0.0658
     27 CL         64.6428   83.1175   11.0870 Cl      1  UNL1       -0.0816
@<TRIPOS>BOND
     1     1     2    1
     2     2     3   ar
     3     3     4   ar
     4     4    17    1
     5    17    19    1
     6    19    20    1
     7    20    21   ar
     8    21    22   ar
     9    22    23   ar
    10    23    24   ar
    11    24    25    1
    12    24    26   ar
    13    26    27    1
    14     4     5   ar
    15     5     6   ar
    16     6     7   ar
    17     7     8   ar
    18     8     9   ar
    19     9    12    1
    20    12    13   am
    21    12    14    2
    22     9    10   ar
    23    10    11   ar
    24    11     2   ar
    25    26    20   ar
    26    10     5   ar
    27    17    18    1
    28    13    15    1
    29    13    16    1
@<TRIPOS>MOLECULE
*****
 27 29 0 0 0
SMALL
GASTEIGER

@<TRIPOS>ATOM
      1 C          67.1069   93.0889    9.7231 C.3     1  UNL1        0.0521
      2 C          66.3173   92.6402   10.9169 C.ar    1  UNL1        0.0606
      3 C          64.9480   92.0557   10.7339 C.ar    1  UNL1        0.0290
      4 C          64.1584   91.6070   11.9277 C.ar    1  UNL1        0.0475
      5 C          64.7380   91.7428   13.3045 C.ar    1  UNL1        0.0309
      6 C          63.9483   91.2941   14.4983 C.ar    1  UNL1        0.0027
      7 C          64.5280   91.4299   15.8751 C.ar    1  UNL1        0.0003
      8 C          65.8972   92.0144   16.0581 C.ar    1  UNL1        0.0060
      9 C          66.6868   92.4631   14.8643 C.ar    1  UNL1        0.0708
     10 C          66.1072   92.3273   13.4876 C.ar    1  UNL1        0.0864
     11 N          66.8969   92.7760   12.2937 N.ar    1  UNL1       -0.2494
     12 C          68.0561   93.0476   15.0473 C.2     1  UNL1        0.2442
     13 N          69.2205   92.4818   14.2898 N.am    1  UNL1       -0.3253
     14 O          68.2609   94.1979   15.9879 O.2     1  UNL1       -0.2703
     15 H          69.0861   91.7268   13.6724 H       1  UNL1        0.1453
     16 H          70.1192   92.8654   14.4099 H       1  UNL1        0.1453
     17 N          62.7891   91.0225   11.7446 N.pl3   1  UNL1       -0.3290
     18 H          62.1342   91.0636   12.4786 H       1  UNL1        0.1471
     19 C          62.4177   90.3753   10.4435 C.3     1  UNL1        0.1152
     20 C          62.0395   88.9242   10.4086 C.ar    1  UNL1        0.0088
     21 C          62.6751   87.9603   11.3662 C.ar    1  UNL1       -0.0017
     22 C          62.2969   86.5091   11.3313 C.ar    1  UNL1        0.0007
     23 C          61.2832   86.0219   10.3388 C.ar    1  UNL1        0.0122
     24 C          60.6476   86.9858    9.3813 C.ar    1  UNL1        0.0679
     25 CL         59.6339   86.4986    8.3888 Cl      1  UNL1       -0.0814
     26 C          61.0258   88.4369    9.4161 C.ar    1  UNL1        0.0658
     27 CL         60.3902   89.4009    8.4585 Cl      1  UNL1       -0.0816
@<TRIPOS>BOND
     1     1     2    1
     2     2     3   ar
     3     3     4   ar
     4     4    17    1
     5    17    19    1
     6    19    20    1
     7    20    21   ar
     8    21    22   ar
     9    22    23   ar
    10    23    24   ar
    11    24    25    1
    12    24    26   ar
    13    26    27    1
    14     4     5   ar
    15     5     6   ar
    16     6     7   ar
    17     7     8   ar
    18     8     9   ar
    19     9    12    1
    20    12    13   am
    21    12    14    2
    22     9    10   ar
    23    10    11   ar
    24    11     2   ar
    25    26    20   ar
    26    10     5   ar
    27    17    18    1
    28    13    15    1
    29    13    16    1
@<TRIPOS>MOLECULE
*****
 27 29 0 0 0
SMALL
GASTEIGER

@<TRIPOS>ATOM
      1 C          64.4423   86.6691   15.1684 C.3     1  UNL1        0.0521
      2 C          64.1904   87.8238   14.2447 C.ar    1  UNL1        0.0606
      3 C          64.7203   89.1854   14.5843 C.ar    1  UNL1        0.0290
      4 C          64.4684   90.3401   13.6607 C.ar    1  UNL1        0.0475
      5 C          63.6865   90.1333   12.3974 C.ar    1  UNL1        0.0309
      6 C          63.4346   91.2880   11.4737 C.ar    1  UNL1        0.0027
      7 C          62.6528   91.0812   10.2105 C.ar    1  UNL1        0.0003
      8 C          62.1228   89.7197    9.8708 C.ar    1  UNL1        0.0060
      9 C          62.3747   88.5649   10.7944 C.ar    1  UNL1        0.0708
     10 C          63.1566   88.7718   12.0577 C.ar    1  UNL1        0.0864
     11 N          63.4085   87.6170   12.9814 N.ar    1  UNL1       -0.2494
     12 C          61.8448   87.2034   10.4548 C.2     1  UNL1        0.2442
     13 N          61.0558   86.4310   11.4700 N.am    1  UNL1       -0.3253
     14 O          62.1038   86.6143    9.0999 O.2     1  UNL1       -0.2703
     15 H          60.8858   86.8176   12.3593 H       1  UNL1        0.1453
     16 H          60.7080   85.5373   11.2471 H       1  UNL1        0.1453
     17 N          64.9984   91.7016   14.0004 N.pl3   1  UNL1       -0.3290
     18 H          64.4389   92.3360   14.5041 H       1  UNL1        0.1471
     19 C          66.3807   92.0966   13.5725 C.3     1  UNL1        0.1152
     20 C          66.5998   92.7187   12.2253 C.ar    1  UNL1        0.0088
     21 C          65.6597   93.7751   11.7251 C.ar    1  UNL1       -0.0017
     22 C          65.8788   94.3972   10.3779 C.ar    1  UNL1        0.0007
     23 C          67.0381   93.9628    9.5309 C.ar    1  UNL1        0.0122
     24 C          67.9782   92.9064   10.0310 C.ar    1  UNL1        0.0679
     25 CL         69.1374   92.4721    9.1840 Cl      1  UNL1       -0.0814
     26 C          67.7590   92.2844   11.3782 C.ar    1  UNL1        0.0658
     27 CL         68.6992   91.2279   11.8784 Cl      1  UNL1       -0.0816
@<TRIPOS>BOND
     1     1     2    1
     2     2     3   ar
     3     3     4   ar
     4     4    17    1
     5    17    19    1
     6    19    20    1
     7    20    21   ar
     8    21    22   ar
     9    22    23   ar
    10    23    24   ar
    11    24    25    1
    12    24    26   ar
    13    26    27    1
    14     4     5   ar
    15     5     6   ar
    16     6     7   ar
    17     7     8   ar
    18     8     9   ar
    19     9    12    1
    20    12    13   am
    21    12    14    2
    22     9    10   ar
    23    10    11   ar
    24    11     2   ar
    25    26    20   ar
    26    10     5   ar
    27    17    18    1
    28    13    15    1
    29    13    16    1
@<TRIPOS>MOLECULE
*****
 27 29 0 0 0
SMALL
GASTEIGER

@<TRIPOS>ATOM
      1 C          61.2016   86.2577    9.1479 C.3     1  UNL1        0.0521
      2 C          61.9458   86.1715   10.4474 C.ar    1  UNL1        0.0606
      3 C          62.3865   87.4247   11.1439 C.ar    1  UNL1        0.0290
      4 C          63.1307   87.3385   12.4434 C.ar    1  UNL1        0.0475
      5 C          63.4343   85.9990   13.0464 C.ar    1  UNL1        0.0309
      6 C          64.1786   85.9128   14.3459 C.ar    1  UNL1        0.0027
      7 C          64.4821   84.5733   14.9488 C.ar    1  UNL1        0.0003
      8 C          64.0415   83.3201   14.2523 C.ar    1  UNL1        0.0060
      9 C          63.2973   83.4063   12.9529 C.ar    1  UNL1        0.0708
     10 C          62.9937   84.7457   12.3499 C.ar    1  UNL1        0.0864
     11 N          62.2494   84.8320   11.0504 N.ar    1  UNL1       -0.2494
     12 C          62.8566   82.1530   12.2564 C.2     1  UNL1        0.2442
     13 N          63.3597   81.8449   10.8772 N.am    1  UNL1       -0.3253
     14 O          61.9129   81.2078   12.9389 O.2     1  UNL1       -0.2703
     15 H          63.9791   82.4653   10.4292 H       1  UNL1        0.1453
     16 H          63.0704   81.0223   10.4201 H       1  UNL1        0.1453
     17 N          63.5714   88.5918   13.1399 N.pl3   1  UNL1       -0.3290
     18 H          64.2035   88.5402   13.8929 H       1  UNL1        0.1471
     19 C          63.0489   89.9236   12.6892 C.3     1  UNL1        0.1152
     20 C          64.0049   91.0284   12.3494 C.ar    1  UNL1        0.0088
     21 C          64.0965   91.5340   10.9401 C.ar    1  UNL1       -0.0017
     22 C          65.0526   92.6387   10.6003 C.ar    1  UNL1        0.0007
     23 C          65.9169   93.2380   11.6698 C.ar    1  UNL1        0.0122
     24 C          65.8253   92.7325   13.0791 C.ar    1  UNL1        0.0679
     25 CL         66.6896   93.3317   14.1486 Cl      1  UNL1       -0.0814
     26 C          64.8692   91.6277   13.4189 C.ar    1  UNL1        0.0658
     27 CL         64.7776   91.1222   14.8282 Cl      1  UNL1       -0.0816
@<TRIPOS>BOND
     1     1     2    1
     2     2     3   ar
     3     3     4   ar
     4     4    17    1
     5    17    19    1
     6    19    20    1
     7    20    21   ar
     8    21    22   ar
     9    22    23   ar
    10    23    24   ar
    11    24    25    1
    12    24    26   ar
    13    26    27    1
    14     4     5   ar
    15     5     6   ar
    16     6     7   ar
    17     7     8   ar
    18     8     9   ar
    19     9    12    1
    20    12    13   am
    21    12    14    2
    22     9    10   ar
    23    10    11   ar
    24    11     2   ar
    25    26    20   ar
    26    10     5   ar
    27    17    18    1
    28    13    15    1
    29    13    16    1
@<TRIPOS>MOLECULE
*****
 27 29 0 0 0
SMALL
GASTEIGER

@<TRIPOS>ATOM
      1 C          61.2621   86.3354    9.1666 C.3     1  UNL1        0.0521
      2 C          61.9898   86.2107   10.4723 C.ar    1  UNL1        0.0606
      3 C          62.3838   87.4427   11.2319 C.ar    1  UNL1        0.0290
      4 C          63.1115   87.3182   12.5376 C.ar    1  UNL1        0.0475
      5 C          63.4453   85.9616   13.0837 C.ar    1  UNL1        0.0309
      6 C          64.1731   85.8370   14.3894 C.ar    1  UNL1        0.0027
      7 C          64.5069   84.4804   14.9355 C.ar    1  UNL1        0.0003
      8 C          64.1129   83.2484   14.1759 C.ar    1  UNL1        0.0060
      9 C          63.3852   83.3730   12.8702 C.ar    1  UNL1        0.0708
     10 C          63.0514   84.7295   12.3241 C.ar    1  UNL1        0.0864
     11 N          62.3236   84.8542   11.0184 N.ar    1  UNL1       -0.2494
     12 C          62.9913   82.1410   12.1106 C.2     1  UNL1        0.2442
     13 N          63.4587   81.9491   10.6983 N.am    1  UNL1       -0.3253
     14 O          62.1299   81.1008   12.7633 O.2     1  UNL1       -0.2703
     15 H          64.0240   82.6318   10.2699 H       1  UNL1        0.1453
     16 H          63.2001   81.1405   10.1998 H       1  UNL1        0.1453
     17 N          63.5054   88.5502   13.2972 N.pl3   1  UNL1       -0.3290
     18 H          63.7556   88.4839   14.2471 H       1  UNL1        0.1471
     19 C          63.5183   89.8832   12.6096 C.3     1  UNL1        0.1152
     20 C          64.4676   90.9522   13.0635 C.ar    1  UNL1        0.0088
     21 C          64.9726   90.9563   14.4760 C.ar    1  UNL1       -0.0017
     22 C          65.9219   92.0252   14.9299 C.ar    1  UNL1        0.0007
     23 C          66.3663   93.0901   13.9714 C.ar    1  UNL1        0.0122
     24 C          65.8613   93.0860   12.5590 C.ar    1  UNL1        0.0679
     25 CL         66.3056   94.1508   11.6005 Cl      1  UNL1       -0.0814
     26 C          64.9119   92.0170   12.1051 C.ar    1  UNL1        0.0658
     27 CL         64.4069   92.0129   10.6926 Cl      1  UNL1       -0.0816
@<TRIPOS>BOND
     1     1     2    1
     2     2     3   ar
     3     3     4   ar
     4     4    17    1
     5    17    19    1
     6    19    20    1
     7    20    21   ar
     8    21    22   ar
     9    22    23   ar
    10    23    24   ar
    11    24    25    1
    12    24    26   ar
    13    26    27    1
    14     4     5   ar
    15     5     6   ar
    16     6     7   ar
    17     7     8   ar
    18     8     9   ar
    19     9    12    1
    20    12    13   am
    21    12    14    2
    22     9    10   ar
    23    10    11   ar
    24    11     2   ar
    25    26    20   ar
    26    10     5   ar
    27    17    18    1
    28    13    15    1
    29    13    16    1
@<TRIPOS>MOLECULE
*****
 27 29 0 0 0
SMALL
GASTEIGER

@<TRIPOS>ATOM
      1 C          67.2019   95.0046    9.9805 C.3     1  UNL1        0.0521
      2 C          66.4726   93.9493   10.7580 C.ar    1  UNL1        0.0606
      3 C          65.2759   93.2703   10.1606 C.ar    1  UNL1        0.0290
      4 C          64.5466   92.2149   10.9380 C.ar    1  UNL1        0.0475
      5 C          65.0140   91.8386   12.3128 C.ar    1  UNL1        0.0309
      6 C          64.2847   90.7833   13.0902 C.ar    1  UNL1        0.0027
      7 C          64.7521   90.4070   14.4649 C.ar    1  UNL1        0.0003
      8 C          65.9488   91.0861   15.0623 C.ar    1  UNL1        0.0060
      9 C          66.6781   92.1414   14.2849 C.ar    1  UNL1        0.0708
     10 C          66.2107   92.5176   12.9102 C.ar    1  UNL1        0.0864
     11 N          66.9400   93.5730   12.1327 N.ar    1  UNL1       -0.2494
     12 C          67.8748   92.8204   14.8822 C.2     1  UNL1        0.2442
     13 N          69.2452   92.5372   14.3420 N.am    1  UNL1       -0.3253
     14 O          67.7012   93.7826   16.0197 O.2     1  UNL1       -0.2703
     15 H          69.3592   91.9056   13.5955 H       1  UNL1        0.1453
     16 H          70.0307   92.9828   14.7341 H       1  UNL1        0.1453
     17 N          63.3499   91.5359   10.3407 N.pl3   1  UNL1       -0.3290
     18 H          63.1252   91.6783    9.3928 H       1  UNL1        0.1471
     19 C          62.4955   90.6399   11.1876 C.3     1  UNL1        0.1152
     20 C          61.8311   89.4414   10.5776 C.ar    1  UNL1        0.0088
     21 C          60.8439   89.6177    9.4620 C.ar    1  UNL1       -0.0017
     22 C          60.1795   88.4192    8.8521 C.ar    1  UNL1        0.0007
     23 C          60.5023   87.0443    9.3577 C.ar    1  UNL1        0.0122
     24 C          61.4894   86.8680   10.4732 C.ar    1  UNL1        0.0679
     25 CL         61.8122   85.4931   10.9789 Cl      1  UNL1       -0.0814
     26 C          62.1538   88.0666   11.0832 C.ar    1  UNL1        0.0658
     27 CL         63.1410   87.8902   12.1988 Cl      1  UNL1       -0.0816
@<TRIPOS>BOND
     1     1     2    1
     2     2     3   ar
     3     3     4   ar
     4     4    17    1
     5    17    19    1
     6    19    20    1
     7    20    21   ar
     8    21    22   ar
     9    22    23   ar
    10    23    24   ar
    11    24    25    1
    12    24    26   ar
    13    26    27    1
    14     4     5   ar
    15     5     6   ar
    16     6     7   ar
    17     7     8   ar
    18     8     9   ar
    19     9    12    1
    20    12    13   am
    21    12    14    2
    22     9    10   ar
    23    10    11   ar
    24    11     2   ar
    25    26    20   ar
    26    10     5   ar
    27    17    18    1
    28    13    15    1
    29    13    16    1
@<TRIPOS>MOLECULE
*****
 27 29 0 0 0
SMALL
GASTEIGER

@<TRIPOS>ATOM
      1 C          62.6751   83.6991   11.5568 C.3     1  UNL1        0.0521
      2 C          62.4540   85.1716   11.3749 C.ar    1  UNL1        0.0606
      3 C          63.1249   86.1498   12.2931 C.ar    1  UNL1        0.0290
      4 C          62.9039   87.6222   12.1113 C.ar    1  UNL1        0.0475
      5 C          62.0118   88.1165   11.0112 C.ar    1  UNL1        0.0309
      6 C          61.7908   89.5889   10.8294 C.ar    1  UNL1        0.0027
      7 C          60.8988   90.0832    9.7294 C.ar    1  UNL1        0.0003
      8 C          60.2279   89.1050    8.8112 C.ar    1  UNL1        0.0060
      9 C          60.4490   87.6326    8.9930 C.ar    1  UNL1        0.0708
     10 C          61.3409   87.1383   10.0930 C.ar    1  UNL1        0.0864
     11 N          61.5620   85.6659   10.2749 N.ar    1  UNL1       -0.2494
     12 C          59.7780   86.6544    8.0748 C.2     1  UNL1        0.2442
     13 N          60.5867   85.5934    7.3891 N.am    1  UNL1       -0.3253
     14 O          58.2985   86.7373    7.8424 O.2     1  UNL1       -0.2703
     15 H          61.5577   85.5390    7.5417 H       1  UNL1        0.1453
     16 H          60.1463   84.9514    6.7865 H       1  UNL1        0.1453
     17 N          63.5748   88.6003   13.0295 N.pl3   1  UNL1       -0.3290
     18 H          64.2478   88.2867   13.6760 H       1  UNL1        0.1471
     19 C          63.2203   90.0563   12.9627 C.3     1  UNL1        0.1152
     20 C          64.2878   91.0966   13.1309 C.ar    1  UNL1        0.0088
     21 C          64.7943   91.8512   11.9375 C.ar    1  UNL1       -0.0017
     22 C          65.8618   92.8915   12.1058 C.ar    1  UNL1        0.0007
     23 C          66.4228   93.1771   13.4674 C.ar    1  UNL1        0.0122
     24 C          65.9162   92.4225   14.6606 C.ar    1  UNL1        0.0679
     25 CL         66.4772   92.7081   16.0222 Cl      1  UNL1       -0.0814
     26 C          64.8488   91.3822   14.4924 C.ar    1  UNL1        0.0658
     27 CL         64.3422   90.6276   15.6857 Cl      1  UNL1       -0.0816
@<TRIPOS>BOND
     1     1     2    1
     2     2     3   ar
     3     3     4   ar
     4     4    17    1
     5    17    19    1
     6    19    20    1
     7    20    21   ar
     8    21    22   ar
     9    22    23   ar
    10    23    24   ar
    11    24    25    1
    12    24    26   ar
    13    26    27    1
    14     4     5   ar
    15     5     6   ar
    16     6     7   ar
    17     7     8   ar
    18     8     9   ar
    19     9    12    1
    20    12    13   am
    21    12    14    2
    22     9    10   ar
    23    10    11   ar
    24    11     2   ar
    25    26    20   ar
    26    10     5   ar
    27    17    18    1
    28    13    15    1
    29    13    16    1
