@<TRIPOS>MOLECULE
*****
 40 43 0 0 0
SMALL
GASTEIGER

@<TRIPOS>ATOM
      1 N          63.8414   89.1112   15.7727 N.am    1  UNL1       -0.2994
      2 C          63.9323   90.5962   15.9633 C.2     1  UNL1        0.2471
      3 O          63.0221   91.2845   16.9369 O.2     1  UNL1       -0.2701
      4 H          64.4388   88.6594   15.1337 H       1  UNL1        0.1498
      5 C          64.9335   91.3930   15.1805 C.ar    1  UNL1        0.0668
      6 C          65.7785   92.4218   15.8713 C.ar    1  UNL1        0.0058
      7 C          66.7797   93.2186   15.0885 C.ar    1  UNL1        0.0002
      8 C          66.9358   92.9865   13.6148 C.ar    1  UNL1        0.0013
      9 C          66.0907   91.9575   12.9240 C.ar    1  UNL1        0.0148
     10 C          65.0896   91.1608   13.7068 C.ar    1  UNL1        0.0549
     11 N          64.2446   90.1319   13.0160 N.am    1  UNL1       -0.2802
     12 C          63.4786   90.4979   11.7793 C.2     1  UNL1        0.2510
     13 O          63.5577   91.8928   11.2334 O.2     1  UNL1       -0.2698
     14 H          64.1927   89.2164   13.3742 H       1  UNL1        0.1552
     15 C          62.6336   89.4690   11.0884 C.ar    1  UNL1        0.0728
     16 C          62.6881   88.0358   11.5279 C.ar    1  UNL1        0.1033
     17 N          61.8431   87.0069   10.8371 N.ar    1  UNL1       -0.2437
     18 C          60.9436   87.4110    9.7068 C.ar    1  UNL1        0.0813
     19 C          60.0986   86.3821    9.0160 C.ar    1  UNL1        0.0191
     20 C          59.1991   86.7863    7.8858 C.ar    1  UNL1        0.0015
     21 C          59.1445   88.2194    7.4464 C.ar    1  UNL1        0.0001
     22 C          59.9895   89.2484    8.1372 C.ar    1  UNL1        0.0015
     23 C          60.8890   88.8442    9.2674 C.ar    1  UNL1        0.0178
     24 C          61.7341   89.8732    9.9582 C.ar    1  UNL1        0.0076
     25 C          62.8402   88.3144   16.5556 C.3     1  UNL1        0.1070
     26 C          63.1146   86.8757   16.8793 C.3     1  UNL1        0.0937
     27 N          63.5185   85.9259   15.7909 N.3     1  UNL1       -0.2697
     28 C          64.7032   86.2372   14.9253 C.3     1  UNL1        0.0897
     29 C          62.7376   84.6646   15.5682 C.3     1  UNL1        0.0769
     30 C          63.4561   83.3653   15.3556 C.3     1  UNL1        0.0438
     31 C          63.1682   81.2575   11.3902 C.ar    1  UNL1        0.1724
     32 C          62.5500   80.6448   12.6119 C.ar    1  UNL1        0.0397
     33 C          62.6460   81.3474   13.9337 C.ar    1  UNL1       -0.0009
     34 C          63.3602   82.6627   14.0339 C.ar    1  UNL1       -0.0176
     35 C          63.9783   83.2754   12.8121 C.ar    1  UNL1        0.0358
     36 C          63.8823   82.5728   11.4904 C.ar    1  UNL1        0.1721
     37 C          62.7886   79.0828   10.0204 C.3     1  UNL1        0.2526
     38 O          63.0722   80.5549   10.0684 O.3     1  UNL1       -0.4684
     39 O          64.5005   83.1855   10.2686 O.3     1  UNL1       -0.4684
     40 C          63.6875   84.0889    9.3895 C.3     1  UNL1        0.2526
@<TRIPOS>BOND
     1    37    38    1
     2    38    31    1
     3    31    32   ar
     4    32    33   ar
     5    33    34   ar
     6    34    30    1
     7    30    29    1
     8    29    27    1
     9    27    28    1
    10    27    26    1
    11    26    25    1
    12    25     1    1
    13     1     2   am
    14     2     3    2
    15     2     5    1
    16     5     6   ar
    17     6     7   ar
    18     7     8   ar
    19     8     9   ar
    20     9    10   ar
    21    10    11    1
    22    11    12   am
    23    12    13    2
    24    12    15    1
    25    15    16   ar
    26    16    17   ar
    27    17    18   ar
    28    18    19   ar
    29    19    20   ar
    30    20    21   ar
    31    21    22   ar
    32    22    23   ar
    33    23    24   ar
    34    34    35   ar
    35    35    36   ar
    36    36    39    1
    37    39    40    1
    38    36    31   ar
    39    10     5   ar
    40    24    15   ar
    41    23    18   ar
    42     1     4    1
    43    11    14    1
@<TRIPOS>MOLECULE
*****
 40 43 0 0 0
SMALL
GASTEIGER

@<TRIPOS>ATOM
      1 N          62.7369   84.6623   10.1050 N.am    1  UNL1       -0.2994
      2 C          62.1373   85.8972   10.7095 C.2     1  UNL1        0.2471
      3 O          62.3458   86.1973   12.1644 O.2     1  UNL1       -0.2701
      4 H          62.6001   84.4654    9.1501 H       1  UNL1        0.1498
      5 C          61.3293   86.8321    9.8592 C.ar    1  UNL1        0.0668
      6 C          60.5882   86.3086    8.6649 C.ar    1  UNL1        0.0058
      7 C          59.7801   87.2435    7.8145 C.ar    1  UNL1        0.0002
      8 C          59.7132   88.7019    8.1586 C.ar    1  UNL1        0.0013
      9 C          60.4544   89.2255    9.3530 C.ar    1  UNL1        0.0148
     10 C          61.2624   88.2906   10.2033 C.ar    1  UNL1        0.0549
     11 N          62.0036   88.8142   11.3976 N.am    1  UNL1       -0.2802
     12 C          62.7575   90.1076   11.3047 C.2     1  UNL1        0.2510
     13 O          62.7703   90.8775   10.0175 O.2     1  UNL1       -0.2698
     14 H          61.9952   88.3089   12.2426 H       1  UNL1        0.1552
     15 C          63.4987   90.6312   12.4992 C.ar    1  UNL1        0.0728
     16 C          62.9059   90.4918   13.8700 C.ar    1  UNL1        0.1033
     17 N          63.6470   91.0153   15.0644 N.ar    1  UNL1       -0.2437
     18 C          64.9810   91.6783   14.8880 C.ar    1  UNL1        0.0813
     19 C          65.7221   92.2018   16.0824 C.ar    1  UNL1        0.0191
     20 C          67.0560   92.8647   15.9060 C.ar    1  UNL1        0.0015
     21 C          67.6488   93.0041   14.5352 C.ar    1  UNL1        0.0001
     22 C          66.9077   92.4806   13.3408 C.ar    1  UNL1        0.0015
     23 C          65.5738   91.8177   13.5172 C.ar    1  UNL1        0.0178
     24 C          64.8326   91.2941   12.3227 C.ar    1  UNL1        0.0076
     25 C          63.5450   83.7274   10.9554 C.3     1  UNL1        0.1070
     26 C          63.9656   82.3938   10.4125 C.3     1  UNL1        0.0937
     27 N          63.2879   81.1430   10.8880 N.3     1  UNL1       -0.2697
     28 C          62.8773   80.0908    9.9009 C.3     1  UNL1        0.0897
     29 C          63.0209   80.9442   12.3506 C.3     1  UNL1        0.0769
     30 C          63.9770   81.4912   13.3687 C.3     1  UNL1        0.0438
     31 C          62.8960   85.1719   15.7212 C.ar    1  UNL1        0.1724
     32 C          61.9523   84.0069   15.6758 C.ar    1  UNL1        0.0397
     33 C          62.3126   82.7799   14.8916 C.ar    1  UNL1       -0.0009
     34 C          63.6167   82.7181   14.1529 C.ar    1  UNL1       -0.0176
     35 C          64.5603   83.8832   14.1983 C.ar    1  UNL1        0.0358
     36 C          64.2000   85.1101   14.9824 C.ar    1  UNL1        0.1721
     37 C          62.6536   86.3947   18.0007 C.3     1  UNL1        0.2526
     38 O          62.5357   86.3988   16.5053 O.3     1  UNL1       -0.4684
     39 O          65.1437   86.2752   15.0279 O.3     1  UNL1       -0.4684
     40 C          64.6632   87.6447   14.6490 C.3     1  UNL1        0.2526
@<TRIPOS>BOND
     1    37    38    1
     2    38    31    1
     3    31    32   ar
     4    32    33   ar
     5    33    34   ar
     6    34    30    1
     7    30    29    1
     8    29    27    1
     9    27    28    1
    10    27    26    1
    11    26    25    1
    12    25     1    1
    13     1     2   am
    14     2     3    2
    15     2     5    1
    16     5     6   ar
    17     6     7   ar
    18     7     8   ar
    19     8     9   ar
    20     9    10   ar
    21    10    11    1
    22    11    12   am
    23    12    13    2
    24    12    15    1
    25    15    16   ar
    26    16    17   ar
    27    17    18   ar
    28    18    19   ar
    29    19    20   ar
    30    20    21   ar
    31    21    22   ar
    32    22    23   ar
    33    23    24   ar
    34    34    35   ar
    35    35    36   ar
    36    36    39    1
    37    39    40    1
    38    36    31   ar
    39    10     5   ar
    40    24    15   ar
    41    23    18   ar
    42     1     4    1
    43    11    14    1
@<TRIPOS>MOLECULE
*****
 40 43 0 0 0
SMALL
GASTEIGER

@<TRIPOS>ATOM
      1 N          63.6606   90.6756   12.5797 N.am    1  UNL1       -0.2994
      2 C          64.7283   91.6375   12.1497 C.2     1  UNL1        0.2471
      3 O          64.9198   91.9437   10.6938 O.2     1  UNL1       -0.2701
      4 H          63.5349   90.4747   13.5352 H       1  UNL1        0.1498
      5 C          65.6044   92.2932   13.1756 C.ar    1  UNL1        0.0668
      6 C          66.0443   93.7149   12.9877 C.ar    1  UNL1        0.0058
      7 C          66.9205   94.3706   14.0136 C.ar    1  UNL1        0.0002
      8 C          67.3567   93.6047   15.2273 C.ar    1  UNL1        0.0013
      9 C          66.9167   92.1830   15.4151 C.ar    1  UNL1        0.0148
     10 C          66.0406   91.5273   14.3893 C.ar    1  UNL1        0.0549
     11 N          65.6007   90.1056   14.5771 N.am    1  UNL1       -0.2802
     12 C          64.3474   89.8034   15.3439 C.2     1  UNL1        0.2510
     13 O          63.5340   90.9229   15.9228 O.2     1  UNL1       -0.2698
     14 H          66.1345   89.3709   14.1972 H       1  UNL1        0.1552
     15 C          63.9075   88.3817   15.5317 C.ar    1  UNL1        0.0728
     16 C          62.9821   88.0254   16.6572 C.ar    1  UNL1        0.1033
     17 N          62.5422   86.6037   16.8451 N.ar    1  UNL1       -0.2437
     18 C          63.0277   85.5383   15.9074 C.ar    1  UNL1        0.0813
     19 C          62.5877   84.1166   16.0952 C.ar    1  UNL1        0.0191
     20 C          63.0732   83.0512   15.1576 C.ar    1  UNL1        0.0015
     21 C          63.9985   83.4075   14.0320 C.ar    1  UNL1        0.0001
     22 C          64.4384   84.8292   13.8442 C.ar    1  UNL1        0.0015
     23 C          63.9530   85.8945   14.7819 C.ar    1  UNL1        0.0178
     24 C          64.3929   87.3163   14.5940 C.ar    1  UNL1        0.0076
     25 C          62.7845   90.0199   11.5538 C.3     1  UNL1        0.1070
     26 C          61.7227   90.8163   10.8549 C.3     1  UNL1        0.0937
     27 N          60.3638   90.2217   10.6321 N.3     1  UNL1       -0.2697
     28 C          59.2380   90.5527   11.5664 C.3     1  UNL1        0.0897
     29 C          60.1307   89.2961    9.4749 C.3     1  UNL1        0.0769
     30 C          59.7706   87.8613    9.7230 C.3     1  UNL1        0.0438
     31 C          62.9728   84.6999    9.6898 C.ar    1  UNL1        0.1724
     32 C          62.4541   85.2283   10.9943 C.ar    1  UNL1        0.0397
     33 C          61.3866   86.2821   11.0054 C.ar    1  UNL1       -0.0009
     34 C          60.8380   86.8075    9.7120 C.ar    1  UNL1       -0.0176
     35 C          61.3567   86.2790    8.4074 C.ar    1  UNL1        0.0358
     36 C          62.4241   85.2252    8.3964 C.ar    1  UNL1        0.1721
     37 C          63.8684   82.3958   10.4896 C.3     1  UNL1        0.2526
     38 O          64.0403   83.6460    9.6788 O.3     1  UNL1       -0.4684
     39 O          62.9429   84.6967    7.0919 O.3     1  UNL1       -0.4684
     40 C          61.9878   84.3674    5.9831 C.3     1  UNL1        0.2526
@<TRIPOS>BOND
     1    37    38    1
     2    38    31    1
     3    31    32   ar
     4    32    33   ar
     5    33    34   ar
     6    34    30    1
     7    30    29    1
     8    29    27    1
     9    27    28    1
    10    27    26    1
    11    26    25    1
    12    25     1    1
    13     1     2   am
    14     2     3    2
    15     2     5    1
    16     5     6   ar
    17     6     7   ar
    18     7     8   ar
    19     8     9   ar
    20     9    10   ar
    21    10    11    1
    22    11    12   am
    23    12    13    2
    24    12    15    1
    25    15    16   ar
    26    16    17   ar
    27    17    18   ar
    28    18    19   ar
    29    19    20   ar
    30    20    21   ar
    31    21    22   ar
    32    22    23   ar
    33    23    24   ar
    34    34    35   ar
    35    35    36   ar
    36    36    39    1
    37    39    40    1
    38    36    31   ar
    39    10     5   ar
    40    24    15   ar
    41    23    18   ar
    42     1     4    1
    43    11    14    1
@<TRIPOS>MOLECULE
*****
 40 43 0 0 0
SMALL
GASTEIGER

@<TRIPOS>ATOM
      1 N          62.6786   85.0360    9.7764 N.am    1  UNL1       -0.2994
      2 C          62.0361   86.3113   10.2357 C.2     1  UNL1        0.2471
      3 O          62.3731   86.8780   11.5830 O.2     1  UNL1       -0.2701
      4 H          62.4574   84.6640    8.8921 H       1  UNL1        0.1498
      5 C          61.0566   87.0197    9.3477 C.ar    1  UNL1        0.0668
      6 C          59.9106   86.2646    8.7425 C.ar    1  UNL1        0.0058
      7 C          58.9310   86.9731    7.8544 C.ar    1  UNL1        0.0002
      8 C          59.0975   88.4367    7.5716 C.ar    1  UNL1        0.0013
      9 C          60.2437   89.1919    8.1768 C.ar    1  UNL1        0.0148
     10 C          61.2231   88.4834    9.0648 C.ar    1  UNL1        0.0549
     11 N          62.3692   89.2386    9.6700 N.am    1  UNL1       -0.2802
     12 C          62.1221   90.2068   10.7887 C.2     1  UNL1        0.2510
     13 O          60.7289   90.4200   11.3021 O.2     1  UNL1       -0.2698
     14 H          63.2836   89.0987    9.3330 H       1  UNL1        0.1552
     15 C          63.2682   90.9620   11.3938 C.ar    1  UNL1        0.0728
     16 C          64.0617   91.9196   10.5551 C.ar    1  UNL1        0.1033
     17 N          65.2078   92.6747   11.1602 N.ar    1  UNL1       -0.2437
     18 C          65.5604   92.4724   12.6041 C.ar    1  UNL1        0.0813
     19 C          66.7065   93.2275   13.2092 C.ar    1  UNL1        0.0191
     20 C          67.0591   93.0251   14.6531 C.ar    1  UNL1        0.0015
     21 C          66.2656   92.0676   15.4918 C.ar    1  UNL1        0.0001
     22 C          65.1195   91.3124   14.8867 C.ar    1  UNL1        0.0015
     23 C          64.7669   91.5148   13.4429 C.ar    1  UNL1        0.0178
     24 C          63.6208   90.7596   12.8377 C.ar    1  UNL1        0.0076
     25 C          63.6581   84.3275   10.6645 C.3     1  UNL1        0.1070
     26 C          63.8256   82.8405   10.5603 C.3     1  UNL1        0.0937
     27 N          63.6635   81.9804   11.7784 N.3     1  UNL1       -0.2697
     28 C          62.8612   80.7152   11.7018 C.3     1  UNL1        0.0897
     29 C          64.3036   82.3853   13.0731 C.3     1  UNL1        0.0769
     30 C          63.4489   82.7566   14.2485 C.3     1  UNL1        0.0438
     31 C          63.6427   86.9199   15.9453 C.ar    1  UNL1        0.1724
     32 C          64.4463   86.5678   14.7287 C.ar    1  UNL1        0.0397
     33 C          64.3817   85.1800   14.1631 C.ar    1  UNL1       -0.0009
     34 C          63.5135   84.1444   14.8141 C.ar    1  UNL1       -0.0176
     35 C          62.7099   84.4966   16.0308 C.ar    1  UNL1        0.0358
     36 C          62.7746   85.8844   16.5964 C.ar    1  UNL1        0.1721
     37 C          62.6501   89.3115   16.1579 C.3     1  UNL1        0.2526
     38 O          63.7073   88.3077   16.5110 O.3     1  UNL1       -0.4684
     39 O          61.9710   86.2366   17.8131 O.3     1  UNL1       -0.4684
     40 C          62.6476   86.8314   19.0124 C.3     1  UNL1        0.2526
@<TRIPOS>BOND
     1    37    38    1
     2    38    31    1
     3    31    32   ar
     4    32    33   ar
     5    33    34   ar
     6    34    30    1
     7    30    29    1
     8    29    27    1
     9    27    28    1
    10    27    26    1
    11    26    25    1
    12    25     1    1
    13     1     2   am
    14     2     3    2
    15     2     5    1
    16     5     6   ar
    17     6     7   ar
    18     7     8   ar
    19     8     9   ar
    20     9    10   ar
    21    10    11    1
    22    11    12   am
    23    12    13    2
    24    12    15    1
    25    15    16   ar
    26    16    17   ar
    27    17    18   ar
    28    18    19   ar
    29    19    20   ar
    30    20    21   ar
    31    21    22   ar
    32    22    23   ar
    33    23    24   ar
    34    34    35   ar
    35    35    36   ar
    36    36    39    1
    37    39    40    1
    38    36    31   ar
    39    10     5   ar
    40    24    15   ar
    41    23    18   ar
    42     1     4    1
    43    11    14    1
@<TRIPOS>MOLECULE
*****
 40 43 0 0 0
SMALL
GASTEIGER

@<TRIPOS>ATOM
      1 N          64.0615   88.9588   15.5149 N.am    1  UNL1       -0.2994
      2 C          64.0085   90.4390   15.7518 C.2     1  UNL1        0.2471
      3 O          63.0643   91.0019   16.7725 O.2     1  UNL1       -0.2701
      4 H          64.6812   88.5894   14.8450 H       1  UNL1        0.1498
      5 C          64.8996   91.3564   14.9680 C.ar    1  UNL1        0.0668
      6 C          65.8896   92.2295   15.6803 C.ar    1  UNL1        0.0058
      7 C          66.7808   93.1470   14.8965 C.ar    1  UNL1        0.0002
      8 C          66.6818   93.1912   13.4004 C.ar    1  UNL1        0.0013
      9 C          65.6917   92.3181   12.6882 C.ar    1  UNL1        0.0148
     10 C          64.8006   91.4007   13.4719 C.ar    1  UNL1        0.0549
     11 N          63.8105   90.5276   12.7596 N.am    1  UNL1       -0.2802
     12 C          63.3741   90.8708   11.3662 C.2     1  UNL1        0.2510
     13 O          63.9278   92.0871   10.6850 O.2     1  UNL1       -0.2698
     14 H          63.4471   89.7293   13.2067 H       1  UNL1        0.1552
     15 C          62.3840   89.9976   10.6539 C.ar    1  UNL1        0.0728
     16 C          60.9599   90.4447   10.5059 C.ar    1  UNL1        0.1033
     17 N          59.9698   89.5716    9.7937 N.ar    1  UNL1       -0.2437
     18 C          60.4038   88.2513    9.2293 C.ar    1  UNL1        0.0813
     19 C          59.4137   87.3782    8.5171 C.ar    1  UNL1        0.0191
     20 C          59.8477   86.0579    7.9528 C.ar    1  UNL1        0.0015
     21 C          61.2718   85.6108    8.1008 C.ar    1  UNL1        0.0001
     22 C          62.2619   86.4839    8.8130 C.ar    1  UNL1        0.0015
     23 C          61.8279   87.8041    9.3773 C.ar    1  UNL1        0.0178
     24 C          62.8180   88.6773   10.0896 C.ar    1  UNL1        0.0076
     25 C          63.1704   88.0414   16.2988 C.3     1  UNL1        0.1070
     26 C          63.5693   86.6115   16.5140 C.3     1  UNL1        0.0937
     27 N          63.2588   85.5809   15.4693 N.3     1  UNL1       -0.2697
     28 C          62.1956   84.5534   15.7220 C.3     1  UNL1        0.0897
     29 C          64.0115   85.5778   14.1718 C.3     1  UNL1        0.0769
     30 C          64.8352   84.3852   13.7854 C.3     1  UNL1        0.0438
     31 C          63.1088   81.2447   11.0639 C.ar    1  UNL1        0.1724
     32 C          63.9220   82.3679   10.4920 C.ar    1  UNL1        0.0397
     33 C          64.4975   83.4148   11.3992 C.ar    1  UNL1       -0.0009
     34 C          64.2597   83.3384   12.8783 C.ar    1  UNL1       -0.0176
     35 C          63.4464   82.2151   13.4501 C.ar    1  UNL1        0.0358
     36 C          62.8710   81.1683   12.5430 C.ar    1  UNL1        0.1721
     37 C          63.0654   78.7960   10.1967 C.3     1  UNL1        0.2526
     38 O          62.5332   80.1978   10.1567 O.3     1  UNL1       -0.4684
     39 O          62.0577   80.0451   13.1148 O.3     1  UNL1       -0.4684
     40 C          60.8625   80.3444   13.9703 C.3     1  UNL1        0.2526
@<TRIPOS>BOND
     1    37    38    1
     2    38    31    1
     3    31    32   ar
     4    32    33   ar
     5    33    34   ar
     6    34    30    1
     7    30    29    1
     8    29    27    1
     9    27    28    1
    10    27    26    1
    11    26    25    1
    12    25     1    1
    13     1     2   am
    14     2     3    2
    15     2     5    1
    16     5     6   ar
    17     6     7   ar
    18     7     8   ar
    19     8     9   ar
    20     9    10   ar
    21    10    11    1
    22    11    12   am
    23    12    13    2
    24    12    15    1
    25    15    16   ar
    26    16    17   ar
    27    17    18   ar
    28    18    19   ar
    29    19    20   ar
    30    20    21   ar
    31    21    22   ar
    32    22    23   ar
    33    23    24   ar
    34    34    35   ar
    35    35    36   ar
    36    36    39    1
    37    39    40    1
    38    36    31   ar
    39    10     5   ar
    40    24    15   ar
    41    23    18   ar
    42     1     4    1
    43    11    14    1
@<TRIPOS>MOLECULE
*****
 40 43 0 0 0
SMALL
GASTEIGER

@<TRIPOS>ATOM
      1 N          62.1566   84.5847   11.1837 N.am    1  UNL1       -0.2994
      2 C          63.1186   83.4359   11.1133 C.2     1  UNL1        0.2471
      3 O          64.3485   83.5388   10.2608 O.2     1  UNL1       -0.2701
      4 H          61.3494   84.5172   11.7432 H       1  UNL1        0.1498
      5 C          62.8506   82.1842   11.8952 C.ar    1  UNL1        0.0668
      6 C          62.9614   80.8452   11.2284 C.ar    1  UNL1        0.0058
      7 C          62.6934   79.5935   12.0103 C.ar    1  UNL1        0.0002
      8 C          62.3146   79.6808   13.4591 C.ar    1  UNL1        0.0013
      9 C          62.2038   81.0199   14.1259 C.ar    1  UNL1        0.0148
     10 C          62.4718   82.2716   13.3439 C.ar    1  UNL1        0.0549
     11 N          62.3610   83.6106   14.0108 N.am    1  UNL1       -0.2802
     12 C          63.5935   84.3028   14.5128 C.2     1  UNL1        0.2510
     13 O          64.9367   83.6559   14.3479 O.2     1  UNL1       -0.2698
     14 H          61.4794   84.0352   14.1190 H       1  UNL1        0.1552
     15 C          63.4826   85.6419   15.1796 C.ar    1  UNL1        0.0728
     16 C          62.7218   85.7789   16.4651 C.ar    1  UNL1        0.1033
     17 N          62.6109   87.1179   17.1319 N.ar    1  UNL1       -0.2437
     18 C          63.2609   88.3200   16.5133 C.ar    1  UNL1        0.0813
     19 C          63.1500   89.6590   17.1802 C.ar    1  UNL1        0.0191
     20 C          63.7999   90.8610   16.5616 C.ar    1  UNL1        0.0015
     21 C          64.5608   90.7240   15.2761 C.ar    1  UNL1        0.0001
     22 C          64.6716   89.3850   14.6093 C.ar    1  UNL1        0.0015
     23 C          64.0217   88.1830   15.2279 C.ar    1  UNL1        0.0178
     24 C          64.1325   86.8439   14.5610 C.ar    1  UNL1        0.0076
     25 C          62.4247   85.8364   10.4017 C.3     1  UNL1        0.1070
     26 C          62.3930   87.1702   11.0873 C.3     1  UNL1        0.0937
     27 N          61.6858   88.3268   10.4454 N.3     1  UNL1       -0.2697
     28 C          60.3129   88.1408    9.8704 C.3     1  UNL1        0.0897
     29 C          62.3514   89.6694   10.3784 C.3     1  UNL1        0.0769
     30 C          62.8910   90.3021   11.6268 C.3     1  UNL1        0.0438
     31 C          65.9774   93.5644   11.3427 C.ar    1  UNL1        0.1724
     32 C          65.3296   93.0345   10.0979 C.ar    1  UNL1        0.0397
     33 C          64.3007   91.9470   10.1926 C.ar    1  UNL1       -0.0009
     34 C          63.9198   91.3895   11.5321 C.ar    1  UNL1       -0.0176
     35 C          64.5677   91.9196   12.7768 C.ar    1  UNL1        0.0358
     36 C          65.5965   93.0070   12.6821 C.ar    1  UNL1        0.1721
     37 C          66.5990   96.0361   10.8379 C.3     1  UNL1        0.2526
     38 O          67.0063   94.6519   11.2480 O.3     1  UNL1       -0.4684
     39 O          66.2444   93.5370   13.9269 O.3     1  UNL1       -0.4684
     40 C          67.5543   92.9713   14.3897 C.3     1  UNL1        0.2526
@<TRIPOS>BOND
     1    37    38    1
     2    38    31    1
     3    31    32   ar
     4    32    33   ar
     5    33    34   ar
     6    34    30    1
     7    30    29    1
     8    29    27    1
     9    27    28    1
    10    27    26    1
    11    26    25    1
    12    25     1    1
    13     1     2   am
    14     2     3    2
    15     2     5    1
    16     5     6   ar
    17     6     7   ar
    18     7     8   ar
    19     8     9   ar
    20     9    10   ar
    21    10    11    1
    22    11    12   am
    23    12    13    2
    24    12    15    1
    25    15    16   ar
    26    16    17   ar
    27    17    18   ar
    28    18    19   ar
    29    19    20   ar
    30    20    21   ar
    31    21    22   ar
    32    22    23   ar
    33    23    24   ar
    34    34    35   ar
    35    35    36   ar
    36    36    39    1
    37    39    40    1
    38    36    31   ar
    39    10     5   ar
    40    24    15   ar
    41    23    18   ar
    42     1     4    1
    43    11    14    1
@<TRIPOS>MOLECULE
*****
 40 43 0 0 0
SMALL
GASTEIGER

@<TRIPOS>ATOM
      1 N          60.8535   89.8979   10.8916 N.am    1  UNL1       -0.2994
      2 C          62.1510   89.1815   11.1223 C.2     1  UNL1        0.2471
      3 O          62.4904   87.9652   10.3126 O.2     1  UNL1       -0.2701
      4 H          60.6306   90.6961   11.4230 H       1  UNL1        0.1498
      5 C          63.1090   89.6813   12.1626 C.ar    1  UNL1        0.0668
      6 C          63.4729   91.1357   12.2100 C.ar    1  UNL1        0.0058
      7 C          64.4310   91.6357   13.2503 C.ar    1  UNL1        0.0002
      8 C          65.0252   90.6811   14.2432 C.ar    1  UNL1        0.0013
      9 C          64.6613   89.2266   14.1957 C.ar    1  UNL1        0.0148
     10 C          63.7033   88.7268   13.1554 C.ar    1  UNL1        0.0549
     11 N          63.3395   87.2724   13.1079 N.am    1  UNL1       -0.2802
     12 C          64.0253   86.2976   14.0186 C.2     1  UNL1        0.2510
     13 O          65.0751   86.7772   14.9767 O.2     1  UNL1       -0.2698
     14 H          62.6505   86.9576   12.4791 H       1  UNL1        0.1552
     15 C          63.6615   84.8431   13.9711 C.ar    1  UNL1        0.0728
     16 C          63.3016   84.1185   15.2342 C.ar    1  UNL1        0.1033
     17 N          62.9377   82.6641   15.1868 N.ar    1  UNL1       -0.2437
     18 C          62.9337   81.9342   13.8762 C.ar    1  UNL1        0.0813
     19 C          62.5699   80.4799   13.8288 C.ar    1  UNL1        0.0191
     20 C          62.5659   79.7501   12.5183 C.ar    1  UNL1        0.0015
     21 C          62.9259   80.4748   11.2553 C.ar    1  UNL1        0.0001
     22 C          63.2897   81.9292   11.3027 C.ar    1  UNL1        0.0015
     23 C          63.2937   82.6589   12.6132 C.ar    1  UNL1        0.0178
     24 C          63.6575   84.1134   12.6607 C.ar    1  UNL1        0.0076
     25 C          59.8954   89.3979    9.8512 C.3     1  UNL1        0.1070
     26 C          60.1239   89.7208    8.4043 C.3     1  UNL1        0.0937
     27 N          59.4975   88.8714    7.3384 N.3     1  UNL1       -0.2697
     28 C          59.0731   87.4672    7.6513 C.3     1  UNL1        0.0897
     29 C          59.2954   89.4264    5.9595 C.3     1  UNL1        0.0769
     30 C          59.2752   90.9107    5.7440 C.3     1  UNL1        0.0438
     31 C          61.6536   92.7287    2.3842 C.ar    1  UNL1        0.1724
     32 C          62.3070   91.7649    3.3297 C.ar    1  UNL1        0.0397
     33 C          61.5142   91.1589    4.4497 C.ar    1  UNL1       -0.0009
     34 C          60.0680   91.5167    4.6240 C.ar    1  UNL1       -0.0176
     35 C          59.4146   92.4805    3.6784 C.ar    1  UNL1        0.0358
     36 C          60.2073   93.0865    2.5585 C.ar    1  UNL1        0.1721
     37 C          63.4604   94.4012    1.5546 C.3     1  UNL1        0.2526
     38 O          62.4463   93.3347    1.2642 O.3     1  UNL1       -0.4684
     39 O          59.5539   94.0503    1.6129 O.3     1  UNL1       -0.4684
     40 C          58.9221   93.5486    0.3483 C.3     1  UNL1        0.2526
@<TRIPOS>BOND
     1    37    38    1
     2    38    31    1
     3    31    32   ar
     4    32    33   ar
     5    33    34   ar
     6    34    30    1
     7    30    29    1
     8    29    27    1
     9    27    28    1
    10    27    26    1
    11    26    25    1
    12    25     1    1
    13     1     2   am
    14     2     3    2
    15     2     5    1
    16     5     6   ar
    17     6     7   ar
    18     7     8   ar
    19     8     9   ar
    20     9    10   ar
    21    10    11    1
    22    11    12   am
    23    12    13    2
    24    12    15    1
    25    15    16   ar
    26    16    17   ar
    27    17    18   ar
    28    18    19   ar
    29    19    20   ar
    30    20    21   ar
    31    21    22   ar
    32    22    23   ar
    33    23    24   ar
    34    34    35   ar
    35    35    36   ar
    36    36    39    1
    37    39    40    1
    38    36    31   ar
    39    10     5   ar
    40    24    15   ar
    41    23    18   ar
    42     1     4    1
    43    11    14    1
@<TRIPOS>MOLECULE
*****
 40 43 0 0 0
SMALL
GASTEIGER

@<TRIPOS>ATOM
      1 N          61.3522   86.1835   11.0276 N.am    1  UNL1       -0.2994
      2 C          60.5418   87.4385   10.8932 C.2     1  UNL1        0.2471
      3 O          60.2386   88.2689   12.1051 O.2     1  UNL1       -0.2701
      4 H          61.5512   85.6385   10.2322 H       1  UNL1        0.1498
      5 C          60.0347   87.8633    9.5470 C.ar    1  UNL1        0.0668
      6 C          59.1616   86.9408    8.7492 C.ar    1  UNL1        0.0058
      7 C          58.6544   87.3655    7.4029 C.ar    1  UNL1        0.0002
      8 C          59.0204   88.7128    6.8544 C.ar    1  UNL1        0.0013
      9 C          59.8936   89.6354    7.6523 C.ar    1  UNL1        0.0148
     10 C          60.4007   89.2106    8.9985 C.ar    1  UNL1        0.0549
     11 N          61.2738   90.1332    9.7963 N.am    1  UNL1       -0.2802
     12 C          62.6550   89.7027   10.1927 C.2     1  UNL1        0.2510
     13 O          63.1630   88.3496    9.7914 O.2     1  UNL1       -0.2698
     14 H          60.9404   91.0213   10.0597 H       1  UNL1        0.1552
     15 C          63.5281   90.6253   10.9906 C.ar    1  UNL1        0.0728
     16 C          64.1492   91.8233   10.3355 C.ar    1  UNL1        0.1033
     17 N          65.0223   92.7459   11.1333 N.ar    1  UNL1       -0.2437
     18 C          65.2743   92.4706   12.5861 C.ar    1  UNL1        0.0813
     19 C          66.1474   93.3932   13.3839 C.ar    1  UNL1        0.0191
     20 C          66.3994   93.1178   14.8367 C.ar    1  UNL1        0.0015
     21 C          65.7783   91.9198   15.4917 C.ar    1  UNL1        0.0001
     22 C          64.9052   90.9972   14.6940 C.ar    1  UNL1        0.0015
     23 C          64.6532   91.2726   13.2412 C.ar    1  UNL1        0.0178
     24 C          63.7801   90.3499   12.4433 C.ar    1  UNL1        0.0076
     25 C          61.8593   85.7587   12.3739 C.3     1  UNL1        0.1070
     26 C          63.1992   86.2321   12.8542 C.3     1  UNL1        0.0937
     27 N          63.6299   85.9585   14.2647 N.3     1  UNL1       -0.2697
     28 C          64.6688   86.8247   14.9130 C.3     1  UNL1        0.0897
     29 C          63.0217   84.8186   15.0269 C.3     1  UNL1        0.0769
     30 C          63.6481   83.4570   14.9665 C.3     1  UNL1        0.0438
     31 C          63.2175   80.9450   11.2579 C.ar    1  UNL1        0.1724
     32 C          62.6739   80.4509   12.5657 C.ar    1  UNL1        0.0397
     33 C          62.8175   81.2882   13.8019 C.ar    1  UNL1       -0.0009
     34 C          63.5046   82.6197   13.7303 C.ar    1  UNL1       -0.0176
     35 C          64.0481   83.1138   12.4224 C.ar    1  UNL1        0.0358
     36 C          63.9046   82.2764   11.1863 C.ar    1  UNL1        0.1721
     37 C          62.6787   78.6650   10.1346 C.3     1  UNL1        0.2526
     38 O          63.0740   80.1076   10.0216 O.3     1  UNL1       -0.4684
     39 O          64.4481   82.7705    9.8784 O.3     1  UNL1       -0.4684
     40 C          63.8013   83.9354    9.1895 C.3     1  UNL1        0.2526
@<TRIPOS>BOND
     1    37    38    1
     2    38    31    1
     3    31    32   ar
     4    32    33   ar
     5    33    34   ar
     6    34    30    1
     7    30    29    1
     8    29    27    1
     9    27    28    1
    10    27    26    1
    11    26    25    1
    12    25     1    1
    13     1     2   am
    14     2     3    2
    15     2     5    1
    16     5     6   ar
    17     6     7   ar
    18     7     8   ar
    19     8     9   ar
    20     9    10   ar
    21    10    11    1
    22    11    12   am
    23    12    13    2
    24    12    15    1
    25    15    16   ar
    26    16    17   ar
    27    17    18   ar
    28    18    19   ar
    29    19    20   ar
    30    20    21   ar
    31    21    22   ar
    32    22    23   ar
    33    23    24   ar
    34    34    35   ar
    35    35    36   ar
    36    36    39    1
    37    39    40    1
    38    36    31   ar
    39    10     5   ar
    40    24    15   ar
    41    23    18   ar
    42     1     4    1
    43    11    14    1
@<TRIPOS>MOLECULE
*****
 40 43 0 0 0
SMALL
GASTEIGER

@<TRIPOS>ATOM
      1 N          64.7056   91.5124   14.1327 N.am    1  UNL1       -0.2994
      2 C          65.9643   91.9830   13.4663 C.2     1  UNL1        0.2471
      3 O          67.2583   91.2667   13.7164 O.2     1  UNL1       -0.2701
      4 H          63.8563   91.9825   13.9686 H       1  UNL1        0.1498
      5 C          65.9290   93.1700   12.5499 C.ar    1  UNL1        0.0668
      6 C          66.5468   94.4676   12.9793 C.ar    1  UNL1        0.0058
      7 C          66.5116   95.6546   12.0628 C.ar    1  UNL1        0.0002
      8 C          65.8585   95.5439   10.7170 C.ar    1  UNL1        0.0013
      9 C          65.2407   94.2462   10.2876 C.ar    1  UNL1        0.0148
     10 C          65.2759   93.0593   11.2041 C.ar    1  UNL1        0.0549
     11 N          64.6581   91.7616   10.7747 N.am    1  UNL1       -0.2802
     12 C          63.3560   91.3170   11.3719 C.2     1  UNL1        0.2510
     13 O          62.6716   92.1701   12.3984 O.2     1  UNL1       -0.2698
     14 H          65.1073   91.2017   10.1009 H       1  UNL1        0.1552
     15 C          62.7382   90.0193   10.9424 C.ar    1  UNL1        0.0728
     16 C          63.0677   88.7529   11.6756 C.ar    1  UNL1        0.1033
     17 N          62.4500   87.4552   11.2462 N.ar    1  UNL1       -0.2437
     18 C          61.5026   87.4239   10.0836 C.ar    1  UNL1        0.0813
     19 C          60.8849   86.1262    9.6542 C.ar    1  UNL1        0.0191
     20 C          59.9376   86.0950    8.4917 C.ar    1  UNL1        0.0015
     21 C          59.6080   87.3614    7.7585 C.ar    1  UNL1        0.0001
     22 C          60.2258   88.6591    8.1879 C.ar    1  UNL1        0.0015
     23 C          61.1731   88.6903    9.3504 C.ar    1  UNL1        0.0178
     24 C          61.7909   89.9881    9.7799 C.ar    1  UNL1        0.0076
     25 C          64.7409   90.3254   15.0492 C.3     1  UNL1        0.1070
     26 C          63.4817   89.5631   15.3380 C.3     1  UNL1        0.0937
     27 N          63.5575   88.1460   15.8237 N.3     1  UNL1       -0.2697
     28 C          62.9756   87.7777   17.1563 C.3     1  UNL1        0.0897
     29 C          64.2153   87.0971   14.9768 C.3     1  UNL1        0.0769
     30 C          64.4337   85.7183   15.5257 C.3     1  UNL1        0.0438
     31 C          62.9782   82.1284   13.2356 C.ar    1  UNL1        0.1724
     32 C          62.3301   82.5020   14.5357 C.ar    1  UNL1        0.0397
     33 C          62.8152   83.6986   15.2991 C.ar    1  UNL1       -0.0009
     34 C          63.9486   84.5217   14.7623 C.ar    1  UNL1       -0.0176
     35 C          64.5967   84.1481   13.4622 C.ar    1  UNL1        0.0358
     36 C          64.1116   82.9515   12.6988 C.ar    1  UNL1        0.1721
     37 C          62.3093   79.6187   13.1736 C.3     1  UNL1        0.2526
     38 O          62.4931   80.9318   12.4722 O.3     1  UNL1       -0.4684
     39 O          64.7597   82.5779   11.3987 O.3     1  UNL1       -0.4684
     40 C          64.2073   83.1036   10.1070 C.3     1  UNL1        0.2526
@<TRIPOS>BOND
     1    37    38    1
     2    38    31    1
     3    31    32   ar
     4    32    33   ar
     5    33    34   ar
     6    34    30    1
     7    30    29    1
     8    29    27    1
     9    27    28    1
    10    27    26    1
    11    26    25    1
    12    25     1    1
    13     1     2   am
    14     2     3    2
    15     2     5    1
    16     5     6   ar
    17     6     7   ar
    18     7     8   ar
    19     8     9   ar
    20     9    10   ar
    21    10    11    1
    22    11    12   am
    23    12    13    2
    24    12    15    1
    25    15    16   ar
    26    16    17   ar
    27    17    18   ar
    28    18    19   ar
    29    19    20   ar
    30    20    21   ar
    31    21    22   ar
    32    22    23   ar
    33    23    24   ar
    34    34    35   ar
    35    35    36   ar
    36    36    39    1
    37    39    40    1
    38    36    31   ar
    39    10     5   ar
    40    24    15   ar
    41    23    18   ar
    42     1     4    1
    43    11    14    1
