@<TRIPOS>MOLECULE
*****
 26 28 0 0 0
SMALL
GASTEIGER

@<TRIPOS>ATOM
      1 C          64.2182   90.2911   15.5770 C.2     1  UNL1        0.0412
      2 C          63.9664   88.8383   15.3017 C.2     1  UNL1       -0.0331
      3 C          64.2482   88.2729   13.9412 C.3     1  UNL1        0.0418
      4 C          63.9964   86.8201   13.6659 C.3     1  UNL1        0.1002
      5 N          63.4628   85.9326   14.7511 N.3     1  UNL1       -0.1549
      6 C          63.1810   86.4979   16.1116 C.3     1  UNL1        0.1002
      7 C          63.4328   87.9508   16.3869 C.3     1  UNL1        0.0418
      8 S          63.2109   84.4797   14.4758 S.O2    1  UNL1        0.0633
      9 O          61.8423   84.6030   15.0771 O.2     1  UNL1       -0.1528
     10 O          64.5796   84.3565   13.8745 O.2     1  UNL1       -0.1528
     11 C          62.9591   83.0269   14.2005 C.ar    1  UNL1        0.1227
     12 C          64.0906   82.1359   13.7810 C.ar    1  UNL1        0.0199
     13 C          63.8387   80.6830   13.5057 C.ar    1  UNL1        0.0019
     14 C          62.4554   80.1212   13.6499 C.ar    1  UNL1        0.0068
     15 C          61.3240   81.0122   14.0694 C.ar    1  UNL1        0.0359
     16 BR         59.9407   80.4502   14.2135 Br      1  UNL1       -0.0490
     17 C          61.5758   82.4650   14.3447 C.ar    1  UNL1        0.0266
     18 C          65.2855   92.0661   13.4067 C.1     1  UNL1       -0.0405
     19 C          64.7518   91.1786   14.4918 C.1     1  UNL1       -0.0583
     20 C          66.2077   96.8232   11.5305 C.3     1  UNL1        0.0521
     21 C          66.2802   95.3322   11.3834 C.ar    1  UNL1        0.0600
     22 C          66.8863   94.7287   10.1512 C.ar    1  UNL1        0.0148
     23 C          66.9588   93.2377   10.0041 C.ar    1  UNL1        0.0034
     24 C          66.4252   92.3502   11.0892 C.ar    1  UNL1        0.0276
     25 C          65.8191   92.9536   12.3214 C.ar    1  UNL1        0.1224
     26 N          65.7466   94.4447   12.4685 N.ar    1  UNL1       -0.2414
@<TRIPOS>BOND
     1    20    21    1
     2    21    22   ar
     3    22    23   ar
     4    23    24   ar
     5    24    25   ar
     6    25    18    1
     7    18    19    3
     8    19     1    1
     9     1     2    2
    10     2     3    1
    11     3     4    1
    12     4     5    1
    13     5     8    1
    14     8     9    2
    15     8    10    2
    16     8    11    1
    17    11    12   ar
    18    12    13   ar
    19    13    14   ar
    20    14    15   ar
    21    15    16    1
    22    15    17   ar
    23     5     6    1
    24     6     7    1
    25    25    26   ar
    26    26    21   ar
    27     7     2    1
    28    17    11   ar
@<TRIPOS>MOLECULE
*****
 26 28 0 0 0
SMALL
GASTEIGER

@<TRIPOS>ATOM
      1 C          64.4358   90.2489   15.3023 C.2     1  UNL1        0.0412
      2 C          64.0962   88.8241   14.9792 C.2     1  UNL1       -0.0331
      3 C          64.3239   88.2942   13.5945 C.3     1  UNL1        0.0418
      4 C          63.9843   86.8694   13.2714 C.3     1  UNL1        0.1002
      5 N          63.4169   85.9743   14.3330 N.3     1  UNL1       -0.1549
      6 C          63.1892   86.5041   15.7177 C.3     1  UNL1        0.1002
      7 C          63.5288   87.9291   16.0408 C.3     1  UNL1        0.0418
      8 S          63.0773   84.5495   14.0099 S.O2    1  UNL1        0.0633
      9 O          64.2449   84.4842   13.0705 O.2     1  UNL1       -0.1528
     10 O          61.9098   84.6147   14.9493 O.2     1  UNL1       -0.1528
     11 C          62.7377   83.1246   13.6868 C.ar    1  UNL1        0.1227
     12 C          62.0118   82.2802   14.6917 C.ar    1  UNL1        0.0199
     13 C          61.6722   80.8553   14.3686 C.ar    1  UNL1        0.0019
     14 C          62.0586   80.2749   13.0405 C.ar    1  UNL1        0.0068
     15 C          62.7845   81.1193   12.0355 C.ar    1  UNL1        0.0359
     16 BR         63.1708   80.5388   10.7074 Br      1  UNL1       -0.0490
     17 C          63.1241   82.5441   12.3586 C.ar    1  UNL1        0.0266
     18 C          65.5705   92.0390   13.1791 C.1     1  UNL1       -0.0405
     19 C          65.0032   91.1440   14.2407 C.1     1  UNL1       -0.0583
     20 C          68.3574   92.6657    8.8385 C.3     1  UNL1        0.0521
     21 C          67.5313   93.2474    9.9472 C.ar    1  UNL1        0.0600
     22 C          67.2726   94.7241    9.9943 C.ar    1  UNL1        0.0148
     23 C          66.4465   95.3059   11.1030 C.ar    1  UNL1        0.0034
     24 C          65.8791   94.4109   12.1646 C.ar    1  UNL1        0.0276
     25 C          66.1379   92.9341   12.1175 C.ar    1  UNL1        0.1224
     26 N          66.9640   92.3524   11.0088 N.ar    1  UNL1       -0.2414
@<TRIPOS>BOND
     1    20    21    1
     2    21    22   ar
     3    22    23   ar
     4    23    24   ar
     5    24    25   ar
     6    25    18    1
     7    18    19    3
     8    19     1    1
     9     1     2    2
    10     2     3    1
    11     3     4    1
    12     4     5    1
    13     5     8    1
    14     8     9    2
    15     8    10    2
    16     8    11    1
    17    11    12   ar
    18    12    13   ar
    19    13    14   ar
    20    14    15   ar
    21    15    16    1
    22    15    17   ar
    23     5     6    1
    24     6     7    1
    25    25    26   ar
    26    26    21   ar
    27     7     2    1
    28    17    11   ar
@<TRIPOS>MOLECULE
*****
 26 28 0 0 0
SMALL
GASTEIGER

@<TRIPOS>ATOM
      1 C          58.7692   90.8307    5.4938 C.2     1  UNL1        0.0412
      2 C          59.6499   91.4933    4.4764 C.2     1  UNL1       -0.0331
      3 C          61.1373   91.3093    4.5384 C.3     1  UNL1        0.0418
      4 C          62.0180   91.9720    3.5209 C.3     1  UNL1        0.1002
      5 N          61.4113   92.8186    2.4415 N.3     1  UNL1       -0.1549
      6 C          59.9239   93.0026    2.3795 C.3     1  UNL1        0.1002
      7 C          59.0432   92.3399    3.3970 C.3     1  UNL1        0.0418
      8 S          62.2920   93.4813    1.4240 S.O2    1  UNL1        0.0633
      9 O          63.4858   93.2384    2.2992 O.2     1  UNL1       -0.1528
     10 O          61.0983   93.7242    0.5489 O.2     1  UNL1       -0.1528
     11 C          63.1728   94.1439    0.4066 C.ar    1  UNL1        0.1227
     12 C          64.1546   95.1940    0.8347 C.ar    1  UNL1        0.0199
     13 C          65.0353   95.8567   -0.1828 C.ar    1  UNL1        0.0019
     14 C          64.9342   95.4692   -1.6283 C.ar    1  UNL1        0.0068
     15 C          63.9524   94.4191   -2.0564 C.ar    1  UNL1        0.0359
     16 BR         63.8513   94.0317   -3.5021 Br      1  UNL1       -0.0490
     17 C          63.0717   93.7565   -1.0390 C.ar    1  UNL1        0.0266
     18 C          59.9824   89.1374    7.6527 C.1     1  UNL1       -0.0405
     19 C          59.3758   89.9840    6.5733 C.1     1  UNL1       -0.0583
     20 C          62.8678   88.7156   11.9535 C.3     1  UNL1        0.0521
     21 C          62.0318   88.0799   10.8826 C.ar    1  UNL1        0.0600
     22 C          61.8024   86.5976   10.8911 C.ar    1  UNL1        0.0148
     23 C          60.9664   85.9618    9.8202 C.ar    1  UNL1        0.0034
     24 C          60.3597   86.8084    8.7407 C.ar    1  UNL1        0.0276
     25 C          60.5891   88.2907    8.7322 C.ar    1  UNL1        0.1224
     26 N          61.4251   88.9264    9.8032 N.ar    1  UNL1       -0.2414
@<TRIPOS>BOND
     1    20    21    1
     2    21    22   ar
     3    22    23   ar
     4    23    24   ar
     5    24    25   ar
     6    25    18    1
     7    18    19    3
     8    19     1    1
     9     1     2    2
    10     2     3    1
    11     3     4    1
    12     4     5    1
    13     5     8    1
    14     8     9    2
    15     8    10    2
    16     8    11    1
    17    11    12   ar
    18    12    13   ar
    19    13    14   ar
    20    14    15   ar
    21    15    16    1
    22    15    17   ar
    23     5     6    1
    24     6     7    1
    25    25    26   ar
    26    26    21   ar
    27     7     2    1
    28    17    11   ar
@<TRIPOS>MOLECULE
*****
 26 28 0 0 0
SMALL
GASTEIGER

@<TRIPOS>ATOM
      1 C          63.8776   88.5523   15.9313 C.2     1  UNL1        0.0412
      2 C          64.3146   89.7049   15.0766 C.2     1  UNL1       -0.0331
      3 C          64.5336   89.5073   13.6059 C.3     1  UNL1        0.0418
      4 C          64.9707   90.6599   12.7512 C.3     1  UNL1        0.1002
      5 N          65.1888   92.0101   13.3673 N.3     1  UNL1       -0.1549
      6 C          64.9699   92.2077   14.8380 C.3     1  UNL1        0.1002
      7 C          64.5328   91.0550   15.6927 C.3     1  UNL1        0.0418
      8 S          65.6259   93.1627   12.5126 S.O2    1  UNL1        0.0633
      9 O          66.1114   93.8846   13.7345 O.2     1  UNL1       -0.1528
     10 O          65.1404   92.4408   11.2907 O.2     1  UNL1       -0.1528
     11 C          66.0630   94.3153   11.6579 C.ar    1  UNL1        0.1227
     12 C          66.0884   95.7032   12.2263 C.ar    1  UNL1        0.0199
     13 C          66.5255   96.8558   11.3716 C.ar    1  UNL1        0.0019
     14 C          66.9372   96.6204    9.9485 C.ar    1  UNL1        0.0068
     15 C          66.9117   95.2325    9.3801 C.ar    1  UNL1        0.0359
     16 BR         67.3234   94.9972    7.9570 Br      1  UNL1       -0.0490
     17 C          66.4747   94.0799   10.2348 C.ar    1  UNL1        0.0266
     18 C          63.4413   85.8520   14.6992 C.1     1  UNL1       -0.0405
     19 C          63.6594   87.2021   15.3152 C.1     1  UNL1       -0.0583
     20 C          64.1058   82.5508   10.7418 C.3     1  UNL1        0.0521
     21 C          63.5554   82.8513   12.1045 C.ar    1  UNL1        0.0600
     22 C          62.7869   81.8016   12.8510 C.ar    1  UNL1        0.0148
     23 C          62.2364   82.1020   14.2137 C.ar    1  UNL1        0.0034
     24 C          62.4546   83.4521   14.8297 C.ar    1  UNL1        0.0276
     25 C          63.2231   84.5018   14.0832 C.ar    1  UNL1        0.1224
     26 N          63.7735   84.2014   12.7205 N.ar    1  UNL1       -0.2414
@<TRIPOS>BOND
     1    20    21    1
     2    21    22   ar
     3    22    23   ar
     4    23    24   ar
     5    24    25   ar
     6    25    18    1
     7    18    19    3
     8    19     1    1
     9     1     2    2
    10     2     3    1
    11     3     4    1
    12     4     5    1
    13     5     8    1
    14     8     9    2
    15     8    10    2
    16     8    11    1
    17    11    12   ar
    18    12    13   ar
    19    13    14   ar
    20    14    15   ar
    21    15    16    1
    22    15    17   ar
    23     5     6    1
    24     6     7    1
    25    25    26   ar
    26    26    21   ar
    27     7     2    1
    28    17    11   ar
@<TRIPOS>MOLECULE
*****
 26 28 0 0 0
SMALL
GASTEIGER

@<TRIPOS>ATOM
      1 C          58.6466   89.3443    6.8473 C.2     1  UNL1        0.0412
      2 C          59.1850   90.2874    5.8126 C.2     1  UNL1       -0.0331
      3 C          60.6407   90.2539    5.4523 C.3     1  UNL1        0.0418
      4 C          61.1791   91.1970    4.4176 C.3     1  UNL1        0.1002
      5 N          60.2618   92.1736    3.7432 N.3     1  UNL1       -0.1549
      6 C          58.8061   92.2071    4.1035 C.3     1  UNL1        0.1002
      7 C          58.2677   91.2639    5.1382 C.3     1  UNL1        0.0418
      8 S          60.8001   93.1167    2.7085 S.O2    1  UNL1        0.0633
      9 O          59.4447   93.7455    2.5763 O.2     1  UNL1       -0.1528
     10 O          62.1556   92.4880    2.8407 O.2     1  UNL1       -0.1528
     11 C          61.3385   94.0598    1.6738 C.ar    1  UNL1        0.1227
     12 C          60.4549   95.1274    1.0997 C.ar    1  UNL1        0.0199
     13 C          60.9933   96.0705    0.0650 C.ar    1  UNL1        0.0019
     14 C          62.4154   95.9461   -0.3957 C.ar    1  UNL1        0.0068
     15 C          63.2991   94.8786    0.1784 C.ar    1  UNL1        0.0359
     16 BR         64.7212   94.7542   -0.2823 Br      1  UNL1       -0.0490
     17 C          62.7607   93.9355    1.2131 C.ar    1  UNL1        0.0266
     18 C          60.4812   87.3911    8.1962 C.1     1  UNL1       -0.0405
     19 C          59.5639   88.3676    7.5218 C.1     1  UNL1       -0.0583
     20 C          62.3268   85.2103   12.5365 C.3     1  UNL1        0.0521
     21 C          62.3213   85.3241   11.0408 C.ar    1  UNL1        0.0600
     22 C          63.2331   84.4614   10.2196 C.ar    1  UNL1        0.0148
     23 C          63.2275   84.5752    8.7239 C.ar    1  UNL1        0.0034
     24 C          62.3103   85.5518    8.0495 C.ar    1  UNL1        0.0276
     25 C          61.3985   86.4145    8.8707 C.ar    1  UNL1        0.1224
     26 N          61.4041   86.3007   10.3663 N.ar    1  UNL1       -0.2414
@<TRIPOS>BOND
     1    20    21    1
     2    21    22   ar
     3    22    23   ar
     4    23    24   ar
     5    24    25   ar
     6    25    18    1
     7    18    19    3
     8    19     1    1
     9     1     2    2
    10     2     3    1
    11     3     4    1
    12     4     5    1
    13     5     8    1
    14     8     9    2
    15     8    10    2
    16     8    11    1
    17    11    12   ar
    18    12    13   ar
    19    13    14   ar
    20    14    15   ar
    21    15    16    1
    22    15    17   ar
    23     5     6    1
    24     6     7    1
    25    25    26   ar
    26    26    21   ar
    27     7     2    1
    28    17    11   ar
@<TRIPOS>MOLECULE
*****
 26 28 0 0 0
SMALL
GASTEIGER

@<TRIPOS>ATOM
      1 C          58.5693   90.8642    5.4098 C.2     1  UNL1        0.0412
      2 C          59.4662   91.5361    4.4127 C.2     1  UNL1       -0.0331
      3 C          60.9508   91.3336    4.4833 C.3     1  UNL1        0.0418
      4 C          61.8476   92.0055    3.4862 C.3     1  UNL1        0.1002
      5 N          61.2598   92.8799    2.4184 N.3     1  UNL1       -0.1549
      6 C          59.7752   93.0824    2.3478 C.3     1  UNL1        0.1002
      7 C          58.8784   92.4104    3.3450 C.3     1  UNL1        0.0418
      8 S          62.1566   93.5518    1.4213 S.O2    1  UNL1        0.0633
      9 O          60.9873   93.7498    0.5030 O.2     1  UNL1       -0.1528
     10 O          63.3260   93.3538    2.3397 O.2     1  UNL1       -0.1528
     11 C          63.0534   94.2237    0.4242 C.ar    1  UNL1        0.1227
     12 C          62.8501   93.9911   -1.0436 C.ar    1  UNL1        0.0199
     13 C          63.7470   94.6630   -2.0407 C.ar    1  UNL1        0.0019
     14 C          64.8471   95.5675   -1.5700 C.ar    1  UNL1        0.0068
     15 C          65.0504   95.8001   -0.1021 C.ar    1  UNL1        0.0359
     16 BR         66.1506   96.7046    0.3686 Br      1  UNL1       -0.0490
     17 C          64.1536   95.1282    0.8950 C.ar    1  UNL1        0.0266
     18 C          59.7449   89.1155    7.5452 C.1     1  UNL1       -0.0405
     19 C          59.1571   89.9898    6.4776 C.1     1  UNL1       -0.0583
     20 C          62.7289   85.0936    8.9309 C.3     1  UNL1        0.0521
     21 C          61.8247   86.2301    9.3058 C.ar    1  UNL1        0.0600
     22 C          61.5082   86.4923   10.7483 C.ar    1  UNL1        0.0148
     23 C          60.6039   87.6289   11.1232 C.ar    1  UNL1        0.0034
     24 C          60.0161   88.5032   10.0556 C.ar    1  UNL1        0.0276
     25 C          60.3326   88.2411    8.6130 C.ar    1  UNL1        0.1224
     26 N          61.2369   87.1045    8.2381 N.ar    1  UNL1       -0.2414
@<TRIPOS>BOND
     1    20    21    1
     2    21    22   ar
     3    22    23   ar
     4    23    24   ar
     5    24    25   ar
     6    25    18    1
     7    18    19    3
     8    19     1    1
     9     1     2    2
    10     2     3    1
    11     3     4    1
    12     4     5    1
    13     5     8    1
    14     8     9    2
    15     8    10    2
    16     8    11    1
    17    11    12   ar
    18    12    13   ar
    19    13    14   ar
    20    14    15   ar
    21    15    16    1
    22    15    17   ar
    23     5     6    1
    24     6     7    1
    25    25    26   ar
    26    26    21   ar
    27     7     2    1
    28    17    11   ar
@<TRIPOS>MOLECULE
*****
 26 28 0 0 0
SMALL
GASTEIGER

@<TRIPOS>ATOM
      1 C          62.2017   89.4999   10.7060 C.2     1  UNL1        0.0412
      2 C          62.2630   88.0338   11.0169 C.2     1  UNL1       -0.0331
      3 C          63.2712   87.5172   12.0000 C.3     1  UNL1        0.0418
      4 C          63.3325   86.0511   12.3110 C.3     1  UNL1        0.1002
      5 N          62.3855   85.1016   11.6389 N.3     1  UNL1       -0.1549
      6 C          61.3773   85.6182   10.6558 C.3     1  UNL1        0.1002
      7 C          61.3160   87.0844   10.3448 C.3     1  UNL1        0.0418
      8 S          62.4468   83.6355   11.9499 S.O2    1  UNL1        0.0633
      9 O          62.1444   83.9282   13.3896 O.2     1  UNL1       -0.1528
     10 O          62.7492   83.3427   10.5101 O.2     1  UNL1       -0.1528
     11 C          62.5081   82.1694   12.2608 C.ar    1  UNL1        0.1227
     12 C          62.4073   81.6992   13.6817 C.ar    1  UNL1        0.0199
     13 C          62.4686   80.2330   13.9926 C.ar    1  UNL1        0.0019
     14 C          62.6306   79.2371   12.8828 C.ar    1  UNL1        0.0068
     15 C          62.7314   79.7073   11.4619 C.ar    1  UNL1        0.0359
     16 BR         62.8934   78.7112   10.3520 Br      1  UNL1       -0.0490
     17 C          62.6701   81.1734   11.1509 C.ar    1  UNL1        0.0266
     18 C          64.0956   91.3990   12.0502 C.1     1  UNL1       -0.0405
     19 C          63.1487   90.4495   11.3781 C.1     1  UNL1       -0.0583
     20 C          66.8302   92.8189   16.2342 C.3     1  UNL1        0.0521
     21 C          66.4099   93.0584   14.8144 C.ar    1  UNL1        0.0600
     22 C          66.9365   94.2473   14.0667 C.ar    1  UNL1        0.0148
     23 C          66.5162   94.4868   12.6468 C.ar    1  UNL1        0.0034
     24 C          65.5692   93.5374   11.9747 C.ar    1  UNL1        0.0276
     25 C          65.0426   92.3485   12.7224 C.ar    1  UNL1        0.1224
     26 N          65.4629   92.1090   14.1422 N.ar    1  UNL1       -0.2414
@<TRIPOS>BOND
     1    20    21    1
     2    21    22   ar
     3    22    23   ar
     4    23    24   ar
     5    24    25   ar
     6    25    18    1
     7    18    19    3
     8    19     1    1
     9     1     2    2
    10     2     3    1
    11     3     4    1
    12     4     5    1
    13     5     8    1
    14     8     9    2
    15     8    10    2
    16     8    11    1
    17    11    12   ar
    18    12    13   ar
    19    13    14   ar
    20    14    15   ar
    21    15    16    1
    22    15    17   ar
    23     5     6    1
    24     6     7    1
    25    25    26   ar
    26    26    21   ar
    27     7     2    1
    28    17    11   ar
@<TRIPOS>MOLECULE
*****
 26 28 0 0 0
SMALL
GASTEIGER

@<TRIPOS>ATOM
      1 C          63.0547   90.1252   11.9641 C.2     1  UNL1        0.0412
      2 C          62.9381   88.6383   12.1232 C.2     1  UNL1       -0.0331
      3 C          63.8829   87.9045   13.0282 C.3     1  UNL1        0.0418
      4 C          63.7663   86.4176   13.1874 C.3     1  UNL1        0.1002
      5 N          62.7049   85.6643   12.4416 N.3     1  UNL1       -0.1549
      6 C          61.7602   86.3981   11.5366 C.3     1  UNL1        0.1002
      7 C          61.8768   87.8851   11.3774 C.3     1  UNL1        0.0418
      8 S          62.5884   84.1774   12.6008 S.O2    1  UNL1        0.0633
      9 O          62.3804   84.3516   14.0760 O.2     1  UNL1       -0.1528
     10 O          62.7963   84.0031   11.1256 O.2     1  UNL1       -0.1528
     11 C          62.4718   82.6904   12.7600 C.ar    1  UNL1        0.1227
     12 C          62.0484   82.1079   14.0758 C.ar    1  UNL1        0.0199
     13 C          61.9318   80.6209   14.2349 C.ar    1  UNL1        0.0019
     14 C          62.2387   79.7165   13.0783 C.ar    1  UNL1        0.0068
     15 C          62.6621   80.2990   11.7625 C.ar    1  UNL1        0.0359
     16 BR         62.9690   79.3945   10.6059 Br      1  UNL1       -0.0490
     17 C          62.7787   81.7859   11.6033 C.ar    1  UNL1        0.0266
     18 C          65.1773   91.6317   13.4557 C.1     1  UNL1       -0.0405
     19 C          64.1161   90.8784   12.7099 C.1     1  UNL1       -0.0583
     20 C          69.0687   91.7011   16.8985 C.3     1  UNL1        0.0521
     21 C          68.1843   92.4196   15.9229 C.ar    1  UNL1        0.0600
     22 C          68.3613   93.8913   15.6932 C.ar    1  UNL1        0.0148
     23 C          67.4770   94.6098   14.7176 C.ar    1  UNL1        0.0034
     24 C          66.4157   93.8566   13.9718 C.ar    1  UNL1        0.0276
     25 C          66.2387   92.3849   14.2015 C.ar    1  UNL1        0.1224
     26 N          67.1230   91.6664   15.1771 N.ar    1  UNL1       -0.2414
@<TRIPOS>BOND
     1    20    21    1
     2    21    22   ar
     3    22    23   ar
     4    23    24   ar
     5    24    25   ar
     6    25    18    1
     7    18    19    3
     8    19     1    1
     9     1     2    2
    10     2     3    1
    11     3     4    1
    12     4     5    1
    13     5     8    1
    14     8     9    2
    15     8    10    2
    16     8    11    1
    17    11    12   ar
    18    12    13   ar
    19    13    14   ar
    20    14    15   ar
    21    15    16    1
    22    15    17   ar
    23     5     6    1
    24     6     7    1
    25    25    26   ar
    26    26    21   ar
    27     7     2    1
    28    17    11   ar
@<TRIPOS>MOLECULE
*****
 26 28 0 0 0
SMALL
GASTEIGER

@<TRIPOS>ATOM
      1 C          58.9494   88.9197    7.0341 C.2     1  UNL1        0.0412
      2 C          59.7935   88.5031    8.2019 C.2     1  UNL1       -0.0331
      3 C          61.1810   89.0514    8.3579 C.3     1  UNL1        0.0418
      4 C          62.0251   88.6348    9.5257 C.3     1  UNL1        0.1002
      5 N          61.4818   87.6699   10.5376 N.3     1  UNL1       -0.1549
      6 C          60.0943   87.1216   10.3816 C.3     1  UNL1        0.1002
      7 C          59.2502   87.5383    9.2137 C.3     1  UNL1        0.0418
      8 S          62.3260   87.2533   11.7054 S.O2    1  UNL1        0.0633
      9 O          61.6891   85.8955   11.6814 O.2     1  UNL1       -0.1528
     10 O          62.9628   88.6111   11.7295 O.2     1  UNL1       -0.1528
     11 C          63.1701   86.8367   12.8732 C.ar    1  UNL1        0.1227
     12 C          63.8414   87.8755   13.7219 C.ar    1  UNL1        0.0199
     13 C          64.6856   87.4588   14.8898 C.ar    1  UNL1        0.0019
     14 C          64.8585   86.0034   15.2089 C.ar    1  UNL1        0.0068
     15 C          64.1872   84.9646   14.3602 C.ar    1  UNL1        0.0359
     16 BR         64.3601   83.5092   14.6793 Br      1  UNL1       -0.0490
     17 C          63.3430   85.3812   13.1924 C.ar    1  UNL1        0.0266
     18 C          60.0360   90.8494    5.0104 C.1     1  UNL1       -0.0405
     19 C          59.4927   89.8846    6.0222 C.1     1  UNL1       -0.0583
     20 C          63.9789   92.5666    2.0940 C.3     1  UNL1        0.0521
     21 C          62.5508   92.6729    2.5403 C.ar    1  UNL1        0.0600
     22 C          61.6660   93.7440    1.9748 C.ar    1  UNL1        0.0148
     23 C          60.2379   93.8502    2.4211 C.ar    1  UNL1        0.0034
     24 C          59.6945   92.8854    3.4329 C.ar    1  UNL1        0.0276
     25 C          60.5793   91.8143    3.9985 C.ar    1  UNL1        0.1224
     26 N          62.0075   91.7081    3.5522 N.ar    1  UNL1       -0.2414
@<TRIPOS>BOND
     1    20    21    1
     2    21    22   ar
     3    22    23   ar
     4    23    24   ar
     5    24    25   ar
     6    25    18    1
     7    18    19    3
     8    19     1    1
     9     1     2    2
    10     2     3    1
    11     3     4    1
    12     4     5    1
    13     5     8    1
    14     8     9    2
    15     8    10    2
    16     8    11    1
    17    11    12   ar
    18    12    13   ar
    19    13    14   ar
    20    14    15   ar
    21    15    16    1
    22    15    17   ar
    23     5     6    1
    24     6     7    1
    25    25    26   ar
    26    26    21   ar
    27     7     2    1
    28    17    11   ar
