@<TRIPOS>MOLECULE
*****
 34 36 0 0 0
SMALL
GASTEIGER

@<TRIPOS>ATOM
      1 C          65.4343   91.7871   14.1350 C.3     1  UNL1        0.1104
      2 C          65.3339   92.3066   15.5385 C.3     1  UNL1        0.0243
      3 N          66.7825   92.4292   13.9937 N.am    1  UNL1       -0.1662
      4 O          66.9297   93.9114   14.1718 O.3     1  UNL1       -0.2915
      5 C          67.9835   91.5892   13.6745 C.2     1  UNL1        0.3267
      6 O          69.3318   92.2313   13.5332 O.2     1  UNL1       -0.2627
      7 H          66.0641   94.3005   14.3723 H       1  UNL1        0.2417
      8 C          65.5346   91.2676   12.7314 C.3     1  UNL1        0.0300
      9 C          63.6137   91.7399   11.0471 C.3     1  UNL1        0.0080
     10 C          64.9717   92.0669   11.5938 C.3     1  UNL1        0.0603
     11 C          65.7668   93.1932   11.0028 C.ar    1  UNL1        0.1390
     12 N          65.5722   94.5931   11.5053 N.ar    1  UNL1       -0.2268
     13 C          66.3672   95.7194   10.9143 C.ar    1  UNL1        0.1314
     14 C          67.3570   95.4458    9.8208 C.ar    1  UNL1        0.1783
     15 F          68.1521   96.5721    9.2299 F       1  UNL1       -0.2009
     16 C          67.5517   94.0460    9.3184 C.ar    1  UNL1        0.1314
     17 N          66.7566   92.9197    9.9094 N.ar    1  UNL1       -0.2268
     18 C          64.0860   91.1450   14.2762 C.3     1  UNL1        0.1895
     19 S          63.9146   89.6861   13.9730 S.O2    1  UNL1        0.0456
     20 O          65.2608   89.4036   14.5714 O.2     1  UNL1       -0.1572
     21 O          62.5685   89.9685   13.3746 O.2     1  UNL1       -0.1572
     22 N          63.7433   88.2270   13.6697 N.3     1  UNL1       -0.1559
     23 C          63.0880   87.7988   12.3902 C.3     1  UNL1        0.1168
     24 C          62.9168   86.3398   12.0871 C.3     1  UNL1        0.1099
     25 N          63.4007   85.3090   13.0634 N.pl3   1  UNL1       -0.3045
     26 C          64.0560   85.7372   14.3429 C.3     1  UNL1        0.1099
     27 C          64.2273   87.1962   14.6461 C.3     1  UNL1        0.1168
     28 C          63.2294   83.8499   12.7602 C.ar    1  UNL1        0.0481
     29 C          63.6111   83.3142   11.4121 C.ar    1  UNL1        0.0168
     30 C          63.4398   81.8552   11.1089 C.ar    1  UNL1        0.0309
     31 C          62.8868   80.9319   12.1538 C.ar    1  UNL1        0.1402
     32 F          62.7154   79.4729   11.8506 F       1  UNL1       -0.2042
     33 C          62.5051   81.4677   13.5019 C.ar    1  UNL1        0.0309
     34 C          62.6764   82.9267   13.8051 C.ar    1  UNL1        0.0168
@<TRIPOS>BOND
     1    10     9    1
     2    10     8    1
     3     8     1    1
     4     1     2    1
     5     1    18    1
     6    18    19    1
     7    19    20    2
     8    19    21    2
     9    19    22    1
    10    22    23    1
    11    23    24    1
    12    24    25    1
    13    25    28    1
    14    28    29   ar
    15    29    30   ar
    16    30    31   ar
    17    31    32    1
    18    31    33   ar
    19    33    34   ar
    20    25    26    1
    21    26    27    1
    22     1     3    1
    23     3     4    1
    24     3     5   am
    25     5     6    2
    26    10    11    1
    27    11    12   ar
    28    12    13   ar
    29    13    14   ar
    30    14    15    1
    31    14    16   ar
    32    16    17   ar
    33    27    22    1
    34    17    11   ar
    35    34    28   ar
    36     4     7    1
@<TRIPOS>MOLECULE
*****
 34 36 0 0 0
SMALL
GASTEIGER

@<TRIPOS>ATOM
      1 C          65.2757   91.6318   14.6854 C.3     1  UNL1        0.1104
      2 C          64.2806   91.5022   15.8003 C.3     1  UNL1        0.0243
      3 N          66.3010   92.1332   15.6588 N.am    1  UNL1       -0.1662
      4 O          65.8855   93.0191   16.7959 O.3     1  UNL1       -0.2915
      5 C          67.7416   91.7488   15.4952 C.2     1  UNL1        0.3267
      6 O          68.7668   92.2502   16.4687 O.2     1  UNL1       -0.2627
      7 H          64.9279   93.1688   16.7559 H       1  UNL1        0.2417
      8 C          66.2709   91.7615   13.5705 C.3     1  UNL1        0.0300
      9 C          66.2904   94.3542   13.7360 C.3     1  UNL1        0.0080
     10 C          66.5277   93.1010   12.9464 C.3     1  UNL1        0.0603
     11 C          67.0218   93.1875   11.5328 C.ar    1  UNL1        0.1390
     12 N          67.9910   92.1672   11.0134 N.ar    1  UNL1       -0.2268
     13 C          68.4852   92.2537    9.5998 C.ar    1  UNL1        0.1314
     14 C          68.0102   93.3604    8.7056 C.ar    1  UNL1        0.1783
     15 F          68.5043   93.4469    7.2919 F       1  UNL1       -0.2009
     16 C          67.0410   94.3806    9.2250 C.ar    1  UNL1        0.1314
     17 N          66.5469   94.2942   10.6387 N.ar    1  UNL1       -0.2268
     18 C          64.2505   91.1304   13.7120 C.3     1  UNL1        0.1895
     19 S          64.0100   89.6568   13.5686 S.O2    1  UNL1        0.0456
     20 O          62.9027   89.9323   12.5950 O.2     1  UNL1       -0.1572
     21 O          65.1172   89.3814   14.5423 O.2     1  UNL1       -0.1572
     22 N          63.7694   88.1832   13.4252 N.3     1  UNL1       -0.1559
     23 C          64.2753   87.2353   14.4719 C.3     1  UNL1        0.1168
     24 C          64.0347   85.7617   14.3285 C.3     1  UNL1        0.1099
     25 N          63.2882   85.2360   13.1384 N.pl3   1  UNL1       -0.3045
     26 C          62.7823   86.1839   12.0917 C.3     1  UNL1        0.1099
     27 C          63.0229   87.6575   12.2351 C.3     1  UNL1        0.1168
     28 C          63.0476   83.7623   12.9949 C.ar    1  UNL1        0.0481
     29 C          63.3376   83.0784   11.6919 C.ar    1  UNL1        0.0168
     30 C          63.0970   81.6047   11.5485 C.ar    1  UNL1        0.0309
     31 C          62.5664   80.8151   12.7082 C.ar    1  UNL1        0.1402
     32 F          62.3258   79.3415   12.5648 F       1  UNL1       -0.2042
     33 C          62.2765   81.4991   14.0113 C.ar    1  UNL1        0.0309
     34 C          62.5171   82.9727   14.1547 C.ar    1  UNL1        0.0168
@<TRIPOS>BOND
     1    10     9    1
     2    10     8    1
     3     8     1    1
     4     1     2    1
     5     1    18    1
     6    18    19    1
     7    19    20    2
     8    19    21    2
     9    19    22    1
    10    22    23    1
    11    23    24    1
    12    24    25    1
    13    25    28    1
    14    28    29   ar
    15    29    30   ar
    16    30    31   ar
    17    31    32    1
    18    31    33   ar
    19    33    34   ar
    20    25    26    1
    21    26    27    1
    22     1     3    1
    23     3     4    1
    24     3     5   am
    25     5     6    2
    26    10    11    1
    27    11    12   ar
    28    12    13   ar
    29    13    14   ar
    30    14    15    1
    31    14    16   ar
    32    16    17   ar
    33    27    22    1
    34    17    11   ar
    35    34    28   ar
    36     4     7    1
@<TRIPOS>MOLECULE
*****
 34 36 0 0 0
SMALL
GASTEIGER

@<TRIPOS>ATOM
      1 C          59.9740   88.2728    9.5977 C.3     1  UNL1        0.1104
      2 C          60.1179   89.7475    9.8316 C.3     1  UNL1        0.0243
      3 N          59.5930   88.5363    8.1710 N.am    1  UNL1       -0.1662
      4 O          58.6024   87.6448    7.4823 O.3     1  UNL1       -0.2915
      5 C          60.2025   89.6912    7.4330 C.2     1  UNL1        0.3267
      6 O          59.8215   89.9547    6.0063 O.2     1  UNL1       -0.2627
      7 H          58.3085   86.9534    8.0959 H       1  UNL1        0.2417
      8 C          59.8300   86.7982    9.3638 C.3     1  UNL1        0.0300
      9 C          61.2327   85.9490    7.3484 C.3     1  UNL1        0.0080
     10 C          60.9862   86.0076    8.8269 C.3     1  UNL1        0.0603
     11 C          61.8959   85.2756    9.7685 C.ar    1  UNL1        0.1390
     12 N          61.6188   85.2905   11.2426 N.ar    1  UNL1       -0.2268
     13 C          62.5285   84.5584   12.1842 C.ar    1  UNL1        0.1314
     14 C          63.7154   83.8116   11.6517 C.ar    1  UNL1        0.1783
     15 F          64.6251   83.0796   12.5932 F       1  UNL1       -0.2009
     16 C          63.9925   83.7967   10.1776 C.ar    1  UNL1        0.1314
     17 N          63.0828   84.5287    9.2360 N.ar    1  UNL1       -0.2268
     18 C          60.3550   88.0093   11.0244 C.3     1  UNL1        0.1895
     19 S          61.5022   88.7511   11.6435 S.O2    1  UNL1        0.0456
     20 O          62.4286   88.1799   10.6114 O.2     1  UNL1       -0.1572
     21 O          60.5758   89.3223   12.6757 O.2     1  UNL1       -0.1572
     22 N          62.6496   89.4930   12.2627 N.3     1  UNL1       -0.1559
     23 C          63.1061   90.7948   11.6740 C.3     1  UNL1        0.1168
     24 C          64.2534   91.5366   12.2931 C.3     1  UNL1        0.1099
     25 N          64.9442   90.9765   13.5011 N.pl3   1  UNL1       -0.3045
     26 C          64.4877   89.6746   14.0898 C.3     1  UNL1        0.1099
     27 C          63.3404   88.9329   13.4706 C.3     1  UNL1        0.1168
     28 C          66.0916   91.7183   14.1202 C.ar    1  UNL1        0.0481
     29 C          65.9491   92.3115   15.4905 C.ar    1  UNL1        0.0168
     30 C          67.0965   93.0533   16.1097 C.ar    1  UNL1        0.0309
     31 C          68.3863   93.2019   15.3585 C.ar    1  UNL1        0.1402
     32 F          69.5336   93.9437   15.9776 F       1  UNL1       -0.2042
     33 C          68.5287   92.6087   13.9881 C.ar    1  UNL1        0.0309
     34 C          67.3814   91.8669   13.3690 C.ar    1  UNL1        0.0168
@<TRIPOS>BOND
     1    10     9    1
     2    10     8    1
     3     8     1    1
     4     1     2    1
     5     1    18    1
     6    18    19    1
     7    19    20    2
     8    19    21    2
     9    19    22    1
    10    22    23    1
    11    23    24    1
    12    24    25    1
    13    25    28    1
    14    28    29   ar
    15    29    30   ar
    16    30    31   ar
    17    31    32    1
    18    31    33   ar
    19    33    34   ar
    20    25    26    1
    21    26    27    1
    22     1     3    1
    23     3     4    1
    24     3     5   am
    25     5     6    2
    26    10    11    1
    27    11    12   ar
    28    12    13   ar
    29    13    14   ar
    30    14    15    1
    31    14    16   ar
    32    16    17   ar
    33    27    22    1
    34    17    11   ar
    35    34    28   ar
    36     4     7    1
@<TRIPOS>MOLECULE
*****
 34 36 0 0 0
SMALL
GASTEIGER

@<TRIPOS>ATOM
      1 C          60.8360   88.4479    9.1057 C.3     1  UNL1        0.1104
      2 C          59.8379   88.9492    8.1045 C.3     1  UNL1        0.0243
      3 N          60.9364   87.1521    8.3568 N.am    1  UNL1       -0.1662
      4 O          62.2642   86.4687    8.2150 O.3     1  UNL1       -0.2915
      5 C          59.7091   86.5397    7.7497 C.2     1  UNL1        0.3267
      6 O          59.8095   85.2439    7.0008 O.2     1  UNL1       -0.2627
      7 H          62.9471   86.9931    8.6618 H       1  UNL1        0.2417
      8 C          61.8342   87.9466   10.1069 C.3     1  UNL1        0.0300
      9 C          60.1104   87.1886   11.8970 C.3     1  UNL1        0.0080
     10 C          61.4074   86.9810   11.1725 C.3     1  UNL1        0.0603
     11 C          62.2776   85.8078   11.5136 C.ar    1  UNL1        0.1390
     12 N          62.7793   85.6288   12.9159 N.ar    1  UNL1       -0.2268
     13 C          63.6495   84.4556   13.2571 C.ar    1  UNL1        0.1314
     14 C          64.0180   83.4614   12.1960 C.ar    1  UNL1        0.1783
     15 F          64.8882   82.2882   12.5371 F       1  UNL1       -0.2009
     16 C          63.5163   83.6405   10.7938 C.ar    1  UNL1        0.1314
     17 N          62.6461   84.8136   10.4526 N.ar    1  UNL1       -0.2268
     18 C          60.7357   89.7437    9.8546 C.3     1  UNL1        0.1895
     19 S          61.8821   90.2114   10.7013 S.O2    1  UNL1        0.0456
     20 O          60.9883   90.2216   11.9058 O.2     1  UNL1       -0.1572
     21 O          62.7759   90.2011    9.4968 O.2     1  UNL1       -0.1572
     22 N          63.0285   90.6790   11.5481 N.3     1  UNL1       -0.1559
     23 C          63.1777   90.1752   12.9530 C.3     1  UNL1        0.1168
     24 C          64.3241   90.6428   13.7997 C.3     1  UNL1        0.1099
     25 N          65.3214   91.6144   13.2415 N.pl3   1  UNL1       -0.3045
     26 C          65.1722   92.1183   11.8366 C.3     1  UNL1        0.1099
     27 C          64.0258   91.6506   10.9899 C.3     1  UNL1        0.1168
     28 C          66.4678   92.0821   14.0883 C.ar    1  UNL1        0.0481
     29 C          67.8691   92.0136   13.5576 C.ar    1  UNL1        0.0168
     30 C          69.0155   92.4813   14.4044 C.ar    1  UNL1        0.0309
     31 C          68.7606   93.0175   15.7819 C.ar    1  UNL1        0.1402
     32 F          69.9070   93.4851   16.6287 F       1  UNL1       -0.2042
     33 C          67.3593   93.0859   16.3126 C.ar    1  UNL1        0.0309
     34 C          66.2129   92.6182   15.4658 C.ar    1  UNL1        0.0168
@<TRIPOS>BOND
     1    10     9    1
     2    10     8    1
     3     8     1    1
     4     1     2    1
     5     1    18    1
     6    18    19    1
     7    19    20    2
     8    19    21    2
     9    19    22    1
    10    22    23    1
    11    23    24    1
    12    24    25    1
    13    25    28    1
    14    28    29   ar
    15    29    30   ar
    16    30    31   ar
    17    31    32    1
    18    31    33   ar
    19    33    34   ar
    20    25    26    1
    21    26    27    1
    22     1     3    1
    23     3     4    1
    24     3     5   am
    25     5     6    2
    26    10    11    1
    27    11    12   ar
    28    12    13   ar
    29    13    14   ar
    30    14    15    1
    31    14    16   ar
    32    16    17   ar
    33    27    22    1
    34    17    11   ar
    35    34    28   ar
    36     4     7    1
@<TRIPOS>MOLECULE
*****
 34 36 0 0 0
SMALL
GASTEIGER

@<TRIPOS>ATOM
      1 C          64.5565   91.5214   12.4445 C.3     1  UNL1        0.1104
      2 C          63.9242   92.1973   11.2641 C.3     1  UNL1        0.0243
      3 N          65.8477   92.2290   12.1581 N.am    1  UNL1       -0.1662
      4 O          67.1512   91.5999   12.5523 O.3     1  UNL1       -0.2915
      5 C          65.8355   93.5657   11.4776 C.2     1  UNL1        0.3267
      6 O          67.1267   94.2733   11.1912 O.2     1  UNL1       -0.2627
      7 H          66.9820   90.7447   12.9776 H       1  UNL1        0.2417
      8 C          65.1888   90.8454   13.6249 C.3     1  UNL1        0.0300
      9 C          64.2216   91.5768   15.9227 C.3     1  UNL1        0.0080
     10 C          65.3384   91.5850   14.9213 C.3     1  UNL1        0.0603
     11 C          66.6049   92.3326   15.2164 C.ar    1  UNL1        0.1390
     12 N          66.6936   93.8016   14.9260 N.ar    1  UNL1       -0.2268
     13 C          67.9600   94.5493   15.2210 C.ar    1  UNL1        0.1314
     14 C          69.1378   93.8280   15.8065 C.ar    1  UNL1        0.1783
     15 F          70.4042   94.5757   16.1016 F       1  UNL1       -0.2009
     16 C          69.0490   92.3591   16.0969 C.ar    1  UNL1        0.1314
     17 N          67.7826   91.6114   15.8018 N.ar    1  UNL1       -0.2268
     18 C          63.2653   90.8137   12.7309 C.3     1  UNL1        0.1895
     19 S          63.1883   89.3198   12.6203 S.O2    1  UNL1        0.0456
     20 O          63.0747   89.2152   14.1123 O.2     1  UNL1       -0.1572
     21 O          63.3019   89.4244   11.1283 O.2     1  UNL1       -0.1572
     22 N          63.1112   87.8258   12.5098 N.3     1  UNL1       -0.1559
     23 C          63.7471   86.9624   13.5586 C.3     1  UNL1        0.1168
     24 C          63.6701   85.4685   13.4480 C.3     1  UNL1        0.1099
     25 N          62.9570   84.8380   12.2886 N.pl3   1  UNL1       -0.3045
     26 C          62.3211   85.7014   11.2398 C.3     1  UNL1        0.1099
     27 C          62.3982   87.1953   11.3504 C.3     1  UNL1        0.1168
     28 C          62.8800   83.3440   12.1781 C.ar    1  UNL1        0.0481
     29 C          62.3910   82.5303   13.3393 C.ar    1  UNL1        0.0168
     30 C          62.3139   81.0363   13.2288 C.ar    1  UNL1        0.0309
     31 C          62.7259   80.3561   11.9569 C.ar    1  UNL1        0.1402
     32 F          62.6489   78.8622   11.8463 F       1  UNL1       -0.2042
     33 C          63.2149   81.1700   10.7956 C.ar    1  UNL1        0.0309
     34 C          63.2920   82.6639   10.9062 C.ar    1  UNL1        0.0168
@<TRIPOS>BOND
     1    10     9    1
     2    10     8    1
     3     8     1    1
     4     1     2    1
     5     1    18    1
     6    18    19    1
     7    19    20    2
     8    19    21    2
     9    19    22    1
    10    22    23    1
    11    23    24    1
    12    24    25    1
    13    25    28    1
    14    28    29   ar
    15    29    30   ar
    16    30    31   ar
    17    31    32    1
    18    31    33   ar
    19    33    34   ar
    20    25    26    1
    21    26    27    1
    22     1     3    1
    23     3     4    1
    24     3     5   am
    25     5     6    2
    26    10    11    1
    27    11    12   ar
    28    12    13   ar
    29    13    14   ar
    30    14    15    1
    31    14    16   ar
    32    16    17   ar
    33    27    22    1
    34    17    11   ar
    35    34    28   ar
    36     4     7    1
@<TRIPOS>MOLECULE
*****
 34 36 0 0 0
SMALL
GASTEIGER

@<TRIPOS>ATOM
      1 C          63.6501   90.7101   12.1601 C.3     1  UNL1        0.1104
      2 C          62.3147   90.5766   11.4900 C.3     1  UNL1        0.0243
      3 N          64.0892   91.6693   11.0937 N.am    1  UNL1       -0.1662
      4 O          63.2413   91.8736    9.8733 O.3     1  UNL1       -0.2915
      5 C          65.3763   92.4241   11.2477 C.2     1  UNL1        0.3267
      6 O          65.8154   93.3833   10.1814 O.2     1  UNL1       -0.2627
      7 H          62.4509   91.3143    9.9314 H       1  UNL1        0.2417
      8 C          64.9854   90.8437   12.8302 C.3     1  UNL1        0.0300
      9 C          63.9401   91.0825   15.1967 C.3     1  UNL1        0.0080
     10 C          65.0692   91.3398   14.2432 C.3     1  UNL1        0.0603
     11 C          66.2821   92.0932   14.7029 C.ar    1  UNL1        0.1390
     12 N          67.4137   91.3622   15.3625 N.ar    1  UNL1       -0.2268
     13 C          68.6266   92.1156   15.8222 C.ar    1  UNL1        0.1314
     14 C          68.7078   93.6001   15.6224 C.ar    1  UNL1        0.1783
     15 F          69.9206   94.3535   16.0821 F       1  UNL1       -0.2009
     16 C          67.5761   94.3310   14.9628 C.ar    1  UNL1        0.1314
     17 N          66.3633   93.5776   14.5031 N.ar    1  UNL1       -0.2268
     18 C          63.2109   89.7510   13.2264 C.3     1  UNL1        0.1895
     19 S          63.1582   88.2802   12.9368 S.O2    1  UNL1        0.0456
     20 O          62.2978   88.5472   11.7375 O.2     1  UNL1       -0.1572
     21 O          64.0186   88.0131   14.1361 O.2     1  UNL1       -0.1572
     22 N          63.1055   86.8093   12.6471 N.3     1  UNL1       -0.1559
     23 C          63.7533   85.8361   13.5868 C.3     1  UNL1        0.1168
     24 C          63.7005   84.3653   13.2971 C.3     1  UNL1        0.1099
     25 N          62.9999   83.8678   12.0676 N.pl3   1  UNL1       -0.3045
     26 C          62.3521   84.8410   11.1278 C.3     1  UNL1        0.1099
     27 C          62.4049   86.3117   11.4176 C.3     1  UNL1        0.1168
     28 C          62.9472   82.3969   11.7779 C.ar    1  UNL1        0.0481
     29 C          63.2545   81.8926   10.3990 C.ar    1  UNL1        0.0168
     30 C          63.2018   80.4217   10.1093 C.ar    1  UNL1        0.0309
     31 C          62.8417   79.4552   11.1985 C.ar    1  UNL1        0.1402
     32 F          62.7890   77.9844   10.9088 F       1  UNL1       -0.2042
     33 C          62.5343   79.9596   12.5774 C.ar    1  UNL1        0.0309
     34 C          62.5871   81.4304   12.8670 C.ar    1  UNL1        0.0168
@<TRIPOS>BOND
     1    10     9    1
     2    10     8    1
     3     8     1    1
     4     1     2    1
     5     1    18    1
     6    18    19    1
     7    19    20    2
     8    19    21    2
     9    19    22    1
    10    22    23    1
    11    23    24    1
    12    24    25    1
    13    25    28    1
    14    28    29   ar
    15    29    30   ar
    16    30    31   ar
    17    31    32    1
    18    31    33   ar
    19    33    34   ar
    20    25    26    1
    21    26    27    1
    22     1     3    1
    23     3     4    1
    24     3     5   am
    25     5     6    2
    26    10    11    1
    27    11    12   ar
    28    12    13   ar
    29    13    14   ar
    30    14    15    1
    31    14    16   ar
    32    16    17   ar
    33    27    22    1
    34    17    11   ar
    35    34    28   ar
    36     4     7    1
@<TRIPOS>MOLECULE
*****
 34 36 0 0 0
SMALL
GASTEIGER

@<TRIPOS>ATOM
      1 C          61.2494   87.1996    9.2994 C.3     1  UNL1        0.1104
      2 C          60.1265   87.5942    8.3865 C.3     1  UNL1        0.0243
      3 N          61.7071   86.1823    8.2966 N.am    1  UNL1       -0.1662
      4 O          63.1559   85.8003    8.2235 O.3     1  UNL1       -0.2915
      5 C          60.7162   85.5471    7.3668 C.2     1  UNL1        0.3267
      6 O          61.1739   84.5298    6.3640 O.2     1  UNL1       -0.2627
      7 H          63.6558   86.2996    8.8881 H       1  UNL1        0.2417
      8 C          62.3723   86.8049   10.2122 C.3     1  UNL1        0.0300
      9 C          61.6859   84.3058   10.3939 C.3     1  UNL1        0.0080
     10 C          62.2808   85.5376   11.0093 C.3     1  UNL1        0.0603
     11 C          62.7842   85.5020   12.4219 C.ar    1  UNL1        0.1390
     12 N          63.6532   86.6110   12.9366 N.ar    1  UNL1       -0.2268
     13 C          64.1566   86.5754   14.3492 C.ar    1  UNL1        0.1314
     14 C          63.7909   85.4308   15.2470 C.ar    1  UNL1        0.1783
     15 F          64.2943   85.3952   16.6596 F       1  UNL1       -0.2009
     16 C          62.9219   84.3218   14.7323 C.ar    1  UNL1        0.1314
     17 N          62.4185   84.3574   13.3198 N.ar    1  UNL1       -0.2268
     18 C          60.7917   88.2169   10.3022 C.3     1  UNL1        0.1895
     19 S          61.7994   89.0321   11.0570 S.O2    1  UNL1        0.0456
     20 O          62.5516   89.2813    9.7834 O.2     1  UNL1       -0.1572
     21 O          61.0471   88.7829   12.3305 O.2     1  UNL1       -0.1572
     22 N          62.8072   89.8475   11.8117 N.3     1  UNL1       -0.1559
     23 C          62.9805   89.6465   13.2880 C.3     1  UNL1        0.1168
     24 C          63.9883   90.4618   14.0427 C.3     1  UNL1        0.1099
     25 N          64.8228   91.4781   13.3211 N.pl3   1  UNL1       -0.3045
     26 C          64.6494   91.6791   11.8448 C.3     1  UNL1        0.1099
     27 C          63.6417   90.8638   11.0901 C.3     1  UNL1        0.1168
     28 C          65.8306   92.2935   14.0759 C.ar    1  UNL1        0.0481
     29 C          66.3140   91.8325   15.4189 C.ar    1  UNL1        0.0168
     30 C          67.3218   92.6478   16.1737 C.ar    1  UNL1        0.0309
     31 C          67.8462   93.9241   15.5854 C.ar    1  UNL1        0.1402
     32 F          68.8539   94.7395   16.3400 F       1  UNL1       -0.2042
     33 C          67.3627   94.3851   14.2422 C.ar    1  UNL1        0.0309
     34 C          66.3549   93.5697   13.4876 C.ar    1  UNL1        0.0168
@<TRIPOS>BOND
     1    10     9    1
     2    10     8    1
     3     8     1    1
     4     1     2    1
     5     1    18    1
     6    18    19    1
     7    19    20    2
     8    19    21    2
     9    19    22    1
    10    22    23    1
    11    23    24    1
    12    24    25    1
    13    25    28    1
    14    28    29   ar
    15    29    30   ar
    16    30    31   ar
    17    31    32    1
    18    31    33   ar
    19    33    34   ar
    20    25    26    1
    21    26    27    1
    22     1     3    1
    23     3     4    1
    24     3     5   am
    25     5     6    2
    26    10    11    1
    27    11    12   ar
    28    12    13   ar
    29    13    14   ar
    30    14    15    1
    31    14    16   ar
    32    16    17   ar
    33    27    22    1
    34    17    11   ar
    35    34    28   ar
    36     4     7    1
@<TRIPOS>MOLECULE
*****
 34 36 0 0 0
SMALL
GASTEIGER

@<TRIPOS>ATOM
      1 C          70.9474   70.7424   14.2384 C.3     1  UNL1        0.1104
      2 C          69.8838   71.4179   13.4245 C.3     1  UNL1        0.0243
      3 N          70.7658   69.4887   13.4352 N.am    1  UNL1       -0.1662
      4 O          71.8574   68.4607   13.3923 O.3     1  UNL1       -0.2915
      5 C          69.4926   69.2629   12.6748 C.2     1  UNL1        0.3267
      6 O          69.3110   68.0092   11.8716 O.2     1  UNL1       -0.2627
      7 H          72.6047   68.7599   13.9334 H       1  UNL1        0.2417
      8 C          72.0109   70.0668   15.0524 C.3     1  UNL1        0.0300
      9 C          71.4790   68.3967   16.9701 C.3     1  UNL1        0.0080
     10 C          71.7796   69.7920   16.5087 C.3     1  UNL1        0.0603
     11 C          71.8488   70.9123   17.5036 C.ar    1  UNL1        0.1390
     12 N          73.0647   71.7890   17.5626 N.ar    1  UNL1       -0.2268
     13 C          73.1339   72.9093   18.5576 C.ar    1  UNL1        0.1314
     14 C          71.9874   73.1531   19.4936 C.ar    1  UNL1        0.1783
     15 F          72.0566   74.2735   20.4886 F       1  UNL1       -0.2009
     16 C          70.7716   72.2765   19.4346 C.ar    1  UNL1        0.1314
     17 N          70.7024   71.1561   18.4396 N.ar    1  UNL1       -0.2268
     18 C          71.1290   71.9961   15.0417 C.3     1  UNL1        0.1895
     19 S          71.3997   73.2984   14.3484 S.O2    1  UNL1        0.0456
     20 O          72.6567   72.7258   13.7637 O.2     1  UNL1       -0.1572
     21 O          70.1426   73.8710   14.9331 O.2     1  UNL1       -0.1572
     22 N          71.6705   74.6007   13.6550 N.3     1  UNL1       -0.1559
     23 C          72.4215   74.6172   12.3567 C.3     1  UNL1        0.1168
     24 C          72.6922   75.9195   11.6635 C.3     1  UNL1        0.1099
     25 N          72.2120   77.2053   12.2685 N.pl3   1  UNL1       -0.3045
     26 C          71.4610   77.1888   13.5668 C.3     1  UNL1        0.1099
     27 C          71.1902   75.8865   14.2601 C.3     1  UNL1        0.1168
     28 C          72.4828   78.5077   11.5752 C.ar    1  UNL1        0.0481
     29 C          72.2153   79.8034   12.2819 C.ar    1  UNL1        0.0168
     30 C          72.4861   81.1058   11.5886 C.ar    1  UNL1        0.0309
     31 C          73.0243   81.1123   10.1885 C.ar    1  UNL1        0.1402
     32 F          73.2951   82.4145    9.4951 F       1  UNL1       -0.2042
     33 C          73.2918   79.8165    9.4817 C.ar    1  UNL1        0.0309
     34 C          73.0210   78.5142   10.1751 C.ar    1  UNL1        0.0168
@<TRIPOS>BOND
     1    10     9    1
     2    10     8    1
     3     8     1    1
     4     1     2    1
     5     1    18    1
     6    18    19    1
     7    19    20    2
     8    19    21    2
     9    19    22    1
    10    22    23    1
    11    23    24    1
    12    24    25    1
    13    25    28    1
    14    28    29   ar
    15    29    30   ar
    16    30    31   ar
    17    31    32    1
    18    31    33   ar
    19    33    34   ar
    20    25    26    1
    21    26    27    1
    22     1     3    1
    23     3     4    1
    24     3     5   am
    25     5     6    2
    26    10    11    1
    27    11    12   ar
    28    12    13   ar
    29    13    14   ar
    30    14    15    1
    31    14    16   ar
    32    16    17   ar
    33    27    22    1
    34    17    11   ar
    35    34    28   ar
    36     4     7    1
@<TRIPOS>MOLECULE
*****
 34 36 0 0 0
SMALL
GASTEIGER

@<TRIPOS>ATOM
      1 C          62.9722   84.1480   12.0017 C.3     1  UNL1        0.1104
      2 C          63.5093   84.5685   10.6657 C.3     1  UNL1        0.0243
      3 N          63.3933   82.7349   11.7262 N.am    1  UNL1       -0.1662
      4 O          64.7407   82.4568   11.1283 O.3     1  UNL1       -0.2915
      5 C          62.4671   81.6000   12.0485 C.2     1  UNL1        0.3267
      6 O          62.8882   80.1869   11.7730 O.2     1  UNL1       -0.2627
      7 H          65.2089   83.2938   10.9829 H       1  UNL1        0.2417
      8 C          62.4352   83.7275   13.3376 C.3     1  UNL1        0.0300
      9 C          64.1506   82.7611   15.0327 C.3     1  UNL1        0.0080
     10 C          63.2767   83.8886   14.5688 C.3     1  UNL1        0.0603
     11 C          63.2444   85.1771   15.3360 C.ar    1  UNL1        0.1390
     12 N          62.4068   85.2914   16.5752 N.ar    1  UNL1       -0.2268
     13 C          62.3745   86.5799   17.3424 C.ar    1  UNL1        0.1314
     14 C          63.1799   87.7541   16.8705 C.ar    1  UNL1        0.1783
     15 F          63.1476   89.0427   17.6378 F       1  UNL1       -0.2009
     16 C          64.0174   87.6399   15.6314 C.ar    1  UNL1        0.1314
     17 N          64.0497   86.3514   14.8642 N.ar    1  UNL1       -0.2268
     18 C          62.5512   85.5611   12.2772 C.3     1  UNL1        0.1895
     19 S          61.9548   86.3933   11.1809 S.O2    1  UNL1        0.0456
     20 O          62.6636   87.6031   11.7137 O.2     1  UNL1       -0.1572
     21 O          61.2461   85.1834   10.6481 O.2     1  UNL1       -0.1572
     22 N          61.3584   87.2255   10.0846 N.3     1  UNL1       -0.1559
     23 C          61.3983   88.7223   10.1730 C.3     1  UNL1        0.1168
     24 C          60.8020   89.5545    9.0768 C.3     1  UNL1        0.1099
     25 N          60.1657   88.8898    7.8921 N.pl3   1  UNL1       -0.3045
     26 C          60.1259   87.3930    7.8037 C.3     1  UNL1        0.1099
     27 C          60.7222   86.5608    8.9000 C.3     1  UNL1        0.1168
     28 C          59.5694   89.7221    6.7958 C.ar    1  UNL1        0.0481
     29 C          60.4614   90.5051    5.8788 C.ar    1  UNL1        0.0168
     30 C          59.8651   91.3374    4.7825 C.ar    1  UNL1        0.0309
     31 C          58.3766   91.3865    4.6033 C.ar    1  UNL1        0.1402
     32 F          57.7802   92.2187    3.5071 F       1  UNL1       -0.2042
     33 C          57.4845   90.6035    5.5205 C.ar    1  UNL1        0.0309
     34 C          58.0809   89.7713    6.6167 C.ar    1  UNL1        0.0168
@<TRIPOS>BOND
     1    10     9    1
     2    10     8    1
     3     8     1    1
     4     1     2    1
     5     1    18    1
     6    18    19    1
     7    19    20    2
     8    19    21    2
     9    19    22    1
    10    22    23    1
    11    23    24    1
    12    24    25    1
    13    25    28    1
    14    28    29   ar
    15    29    30   ar
    16    30    31   ar
    17    31    32    1
    18    31    33   ar
    19    33    34   ar
    20    25    26    1
    21    26    27    1
    22     1     3    1
    23     3     4    1
    24     3     5   am
    25     5     6    2
    26    10    11    1
    27    11    12   ar
    28    12    13   ar
    29    13    14   ar
    30    14    15    1
    31    14    16   ar
    32    16    17   ar
    33    27    22    1
    34    17    11   ar
    35    34    28   ar
    36     4     7    1
