@<TRIPOS>MOLECULE
*****
 42 46 0 0 0
SMALL
GASTEIGER

@<TRIPOS>ATOM
      1 N          63.7754   86.4081   15.5029 N.3     1  UNL1       -0.2688
      2 C          64.1749   87.1113   14.2397 C.3     1  UNL1        0.0744
      3 C          64.1286   88.6090   14.1682 C.3     1  UNL1        0.0407
      4 C          63.6828   89.4033   15.3600 C.3     1  UNL1        0.0913
      5 C          63.2834   88.6999   16.6233 C.3     1  UNL1        0.0407
      6 C          63.3297   87.2024   16.6947 C.3     1  UNL1        0.0744
      7 N          63.9610   90.5167   14.3942 N.am    1  UNL1       -0.3026
      8 C          65.3708   90.8108   13.9745 C.2     1  UNL1        0.2256
      9 O          66.0308   90.4313   14.2108 O.2     1  UNL1       -0.2748
     10 H          63.2184   91.0544   14.0357 H       1  UNL1        0.1497
     11 C          65.6490   91.9242   13.0087 C.3     1  UNL1        0.0902
     12 C          64.5052   91.2520   12.3089 C.3     1  UNL1        0.0298
     13 C          64.0032   91.7923   11.0027 C.3     1  UNL1        0.0694
     14 N          64.6451   93.0049   10.3964 N.3     1  UNL1       -0.2974
     15 C          65.7890   93.6771   11.0963 C.3     1  UNL1        0.0694
     16 C          66.2909   93.1368   12.4024 C.3     1  UNL1        0.0298
     17 H          63.9111   93.7055   10.2920 H       1  UNL1        0.1232
     18 C          66.6962   92.2097   14.0440 C.ar    1  UNL1       -0.0145
     19 C          66.2985   92.7635   15.3801 C.ar    1  UNL1       -0.0038
     20 C          67.3456   93.0490   16.4155 C.ar    1  UNL1       -0.0003
     21 C          68.7905   92.7807   16.1148 C.ar    1  UNL1       -0.0000
     22 C          69.1882   92.2269   14.7786 C.ar    1  UNL1       -0.0003
     23 C          68.1411   91.9414   13.7433 C.ar    1  UNL1       -0.0038
     24 C          63.3337   90.5842   16.2164 C.2     1  UNL1        0.0664
     25 O          63.1027   90.5721   16.9792 O.co2   1  UNL1       -0.5476
     26 O          63.4027   91.9702   15.6469 O.co2   1  UNL1       -0.5476
     27 C          63.8218   84.9105   15.5744 C.3     1  UNL1        0.0992
     28 C          63.0404   83.8373   11.8343 C.ar    1  UNL1        0.1452
     29 C          62.5144   82.4480   12.0422 C.ar    1  UNL1        0.0375
     30 C          62.4242   81.8795   13.4273 C.ar    1  UNL1        0.0029
     31 C          62.8600   82.7004   14.6047 C.ar    1  UNL1       -0.0027
     32 C          63.3860   84.0897   14.3970 C.ar    1  UNL1       -0.0031
     33 C          63.4762   84.6582   13.0117 C.ar    1  UNL1        0.0346
     34 O          63.1305   84.4057   10.4492 O.3     1  UNL1       -0.4504
     35 C          61.9306   85.7027    8.5444 C.ar    1  UNL1        0.1730
     36 C          60.9604   86.7576    8.1020 C.ar    1  UNL1        0.0401
     37 C          60.2199   87.5707    9.1221 C.ar    1  UNL1        0.0033
     38 C          60.4495   87.3288   10.5845 C.ar    1  UNL1        0.0033
     39 C          61.4197   86.2738   11.0268 C.ar    1  UNL1        0.0406
     40 C          62.1603   85.4608   10.0068 C.ar    1  UNL1        0.1789
     41 C          62.0111   84.5349    6.2249 C.3     1  UNL1        0.2526
     42 O          62.6712   84.8896    7.5243 O.3     1  UNL1       -0.4684
@<TRIPOS>UNITY_ATOM_ATTR
25 1
charge -1
@<TRIPOS>BOND
     1    41    42    1
     2    42    35    1
     3    35    36   ar
     4    36    37   ar
     5    37    38   ar
     6    38    39   ar
     7    39    40   ar
     8    40    34    1
     9    34    28    1
    10    28    29   ar
    11    29    30   ar
    12    30    31   ar
    13    31    32   ar
    14    32    27    1
    15    27     1    1
    16     1     2    1
    17     2     3    1
    18     3     4    1
    19     4     7    1
    20     7     8   am
    21     8     9    2
    22     8    11    1
    23    11    18    1
    24    18    19   ar
    25    19    20   ar
    26    20    21   ar
    27    21    22   ar
    28    22    23   ar
    29    11    12    1
    30    12    13    1
    31    13    14    1
    32    14    15    1
    33    15    16    1
    34     4    24    1
    35    24    25   ar
    36    24    26   ar
    37     4     5    1
    38     5     6    1
    39    32    33   ar
    40    40    35   ar
    41    33    28   ar
    42     6     1    1
    43    16    11    1
    44    23    18   ar
    45     7    10    1
    46    14    17    1
@<TRIPOS>MOLECULE
*****
 42 46 0 0 0
SMALL
GASTEIGER

@<TRIPOS>ATOM
      1 N          63.9533   84.8990   15.3693 N.3     1  UNL1       -0.2688
      2 C          64.7385   85.8487   14.5142 C.3     1  UNL1        0.0744
      3 C          64.6083   87.3285   14.7225 C.3     1  UNL1        0.0407
      4 C          63.6929   87.8585   15.7861 C.3     1  UNL1        0.0913
      5 C          62.9077   86.9086   16.6413 C.3     1  UNL1        0.0407
      6 C          63.0379   85.4289   16.4329 C.3     1  UNL1        0.0744
      7 N          64.2243   89.1478   15.2336 N.am    1  UNL1       -0.3026
      8 C          63.9864   89.5022   13.7956 C.2     1  UNL1        0.2256
      9 O          63.5916   89.0706   13.2541 O.2     1  UNL1       -0.2748
     10 H          64.7292   89.7614   15.8148 H       1  UNL1        0.1497
     11 C          64.5178   90.7916   13.2432 C.3     1  UNL1        0.0902
     12 C          65.4806   90.5758   14.3730 C.3     1  UNL1        0.0298
     13 C          66.5763   91.5688   14.6247 C.3     1  UNL1        0.0694
     14 N          66.7092   92.7775   13.7465 N.3     1  UNL1       -0.2974
     15 C          65.7465   92.9933   12.6167 C.3     1  UNL1        0.0694
     16 C          64.6508   92.0003   12.3650 C.3     1  UNL1        0.0298
     17 H          67.6421   92.7418   13.3357 H       1  UNL1        0.1232
     18 C          63.3705   90.5595   12.3052 C.ar    1  UNL1       -0.0145
     19 C          62.0031   90.2706   12.8500 C.ar    1  UNL1       -0.0038
     20 C          60.8557   90.0385   11.9122 C.ar    1  UNL1       -0.0003
     21 C          61.0757   90.0953   10.4295 C.ar    1  UNL1       -0.0000
     22 C          62.4431   90.3842    9.8847 C.ar    1  UNL1       -0.0003
     23 C          63.5905   90.6163   10.8225 C.ar    1  UNL1       -0.0038
     24 C          62.9620   88.8362   16.6577 C.2     1  UNL1        0.0664
     25 O          63.2037   89.1273   17.3594 O.co2   1  UNL1       -0.5476
     26 O          61.6265   89.3691   16.2308 O.co2   1  UNL1       -0.5476
     27 C          64.0835   83.4193   15.1609 C.3     1  UNL1        0.0992
     28 C          63.5249   83.0577   11.2485 C.ar    1  UNL1        0.1452
     29 C          63.1155   81.6178   11.1525 C.ar    1  UNL1        0.0375
     30 C          63.0288   80.7784   12.3926 C.ar    1  UNL1        0.0029
     31 C          63.3515   81.3789   13.7288 C.ar    1  UNL1       -0.0027
     32 C          63.7609   82.8188   13.8248 C.ar    1  UNL1       -0.0031
     33 C          63.8476   83.6582   12.5846 C.ar    1  UNL1        0.0346
     34 O          63.6116   83.8970   10.0083 O.3     1  UNL1       -0.4504
     35 C          62.2037   85.2830    8.3211 C.ar    1  UNL1        0.1730
     36 C          61.1619   86.3270    8.0477 C.ar    1  UNL1        0.0401
     37 C          60.4862   87.0290    9.1882 C.ar    1  UNL1        0.0033
     38 C          60.8523   86.6870   10.6020 C.ar    1  UNL1        0.0033
     39 C          61.8941   85.6430   10.8754 C.ar    1  UNL1        0.0406
     40 C          62.5698   84.9410    9.7349 C.ar    1  UNL1        0.1789
     41 C          62.1572   84.3985    5.8787 C.3     1  UNL1        0.2526
     42 O          62.8794   84.5810    7.1806 O.3     1  UNL1       -0.4684
@<TRIPOS>UNITY_ATOM_ATTR
25 1
charge -1
@<TRIPOS>BOND
     1    41    42    1
     2    42    35    1
     3    35    36   ar
     4    36    37   ar
     5    37    38   ar
     6    38    39   ar
     7    39    40   ar
     8    40    34    1
     9    34    28    1
    10    28    29   ar
    11    29    30   ar
    12    30    31   ar
    13    31    32   ar
    14    32    27    1
    15    27     1    1
    16     1     2    1
    17     2     3    1
    18     3     4    1
    19     4     7    1
    20     7     8   am
    21     8     9    2
    22     8    11    1
    23    11    18    1
    24    18    19   ar
    25    19    20   ar
    26    20    21   ar
    27    21    22   ar
    28    22    23   ar
    29    11    12    1
    30    12    13    1
    31    13    14    1
    32    14    15    1
    33    15    16    1
    34     4    24    1
    35    24    25   ar
    36    24    26   ar
    37     4     5    1
    38     5     6    1
    39    32    33   ar
    40    40    35   ar
    41    33    28   ar
    42     6     1    1
    43    16    11    1
    44    23    18   ar
    45     7    10    1
    46    14    17    1
@<TRIPOS>MOLECULE
*****
 42 46 0 0 0
SMALL
GASTEIGER

@<TRIPOS>ATOM
      1 N          62.7124   89.4311   11.3595 N.3     1  UNL1       -0.2688
      2 C          62.6792   88.4676   12.5086 C.3     1  UNL1        0.0744
      3 C          62.4151   87.0121   12.2595 C.3     1  UNL1        0.0407
      4 C          62.1844   86.5203   10.8613 C.3     1  UNL1        0.0913
      5 C          62.2177   87.4840    9.7122 C.3     1  UNL1        0.0407
      6 C          62.4817   88.9393    9.9613 C.3     1  UNL1        0.0744
      7 N          62.0554   85.2303   11.6158 N.am    1  UNL1       -0.3026
      8 C          63.2849   84.5024   12.0725 C.2     1  UNL1        0.2256
      9 O          64.0426   84.7234   11.9607 O.2     1  UNL1       -0.2748
     10 H          61.1638   84.8614   11.8113 H       1  UNL1        0.1497
     11 C          63.1560   83.2124   12.8270 C.3     1  UNL1        0.0902
     12 C          63.0449   82.7037   11.4203 C.3     1  UNL1        0.0298
     13 C          62.8590   81.2372   11.1656 C.3     1  UNL1        0.0694
     14 N          62.7842   80.2795   12.3176 N.3     1  UNL1       -0.2974
     15 C          62.8952   80.7883   13.7243 C.3     1  UNL1        0.0694
     16 C          63.0811   82.2547   13.9790 C.3     1  UNL1        0.0298
     17 H          63.5375   79.6041   12.1885 H       1  UNL1        0.1232
     18 C          63.3118   84.1693   13.9716 C.ar    1  UNL1       -0.0145
     19 C          64.5615   84.9891   14.0989 C.ar    1  UNL1       -0.0038
     20 C          64.7175   85.9460   15.2435 C.ar    1  UNL1       -0.0003
     21 C          63.6237   86.0830   16.2608 C.ar    1  UNL1       -0.0000
     22 C          62.3741   85.2631   16.1335 C.ar    1  UNL1       -0.0003
     23 C          62.2181   84.3063   14.9890 C.ar    1  UNL1       -0.0038
     24 C          61.9088   85.5805    9.7252 C.2     1  UNL1        0.0664
     25 O          61.2142   85.2313    9.5491 O.co2   1  UNL1       -0.5476
     26 O          63.0086   85.2098    8.7749 O.co2   1  UNL1       -0.5476
     27 C          62.9765   90.8865   11.6086 C.3     1  UNL1        0.0992
     28 C          66.2820   92.8184   12.6532 C.ar    1  UNL1        0.1452
     29 C          66.6041   92.1458   13.9547 C.ar    1  UNL1        0.0375
     30 C          65.7170   91.0535   14.4742 C.ar    1  UNL1        0.0029
     31 C          64.5078   90.6337   13.6921 C.ar    1  UNL1       -0.0027
     32 C          64.1857   91.3063   12.3907 C.ar    1  UNL1       -0.0031
     33 C          65.0728   92.3987   11.8712 C.ar    1  UNL1        0.0346
     34 O          67.1691   93.9107   12.1338 O.3     1  UNL1       -0.4504
     35 C          67.4929   94.5631    9.6398 C.ar    1  UNL1        0.1730
     36 C          67.0750   95.3625    8.4414 C.ar    1  UNL1        0.0401
     37 C          65.9153   96.3090    8.5385 C.ar    1  UNL1        0.0033
     38 C          65.1736   96.4560    9.8339 C.ar    1  UNL1        0.0033
     39 C          65.5916   95.6566   11.0323 C.ar    1  UNL1        0.0406
     40 C          66.7512   94.7102   10.9353 C.ar    1  UNL1        0.1789
     41 C          68.4118   92.1601    9.2776 C.3     1  UNL1        0.2526
     42 O          68.6526   93.6167    9.5428 O.3     1  UNL1       -0.4684
@<TRIPOS>UNITY_ATOM_ATTR
25 1
charge -1
@<TRIPOS>BOND
     1    41    42    1
     2    42    35    1
     3    35    36   ar
     4    36    37   ar
     5    37    38   ar
     6    38    39   ar
     7    39    40   ar
     8    40    34    1
     9    34    28    1
    10    28    29   ar
    11    29    30   ar
    12    30    31   ar
    13    31    32   ar
    14    32    27    1
    15    27     1    1
    16     1     2    1
    17     2     3    1
    18     3     4    1
    19     4     7    1
    20     7     8   am
    21     8     9    2
    22     8    11    1
    23    11    18    1
    24    18    19   ar
    25    19    20   ar
    26    20    21   ar
    27    21    22   ar
    28    22    23   ar
    29    11    12    1
    30    12    13    1
    31    13    14    1
    32    14    15    1
    33    15    16    1
    34     4    24    1
    35    24    25   ar
    36    24    26   ar
    37     4     5    1
    38     5     6    1
    39    32    33   ar
    40    40    35   ar
    41    33    28   ar
    42     6     1    1
    43    16    11    1
    44    23    18   ar
    45     7    10    1
    46    14    17    1
@<TRIPOS>MOLECULE
*****
 42 46 0 0 0
SMALL
GASTEIGER

@<TRIPOS>ATOM
      1 N          62.3574   88.7695   10.9285 N.3     1  UNL1       -0.2688
      2 C          62.6520   90.1631   10.4582 C.3     1  UNL1        0.0744
      3 C          63.4141   91.1070   11.3405 C.3     1  UNL1        0.0407
      4 C          63.8816   90.6572   12.6930 C.3     1  UNL1        0.0913
      5 C          63.5870   89.2636   13.1632 C.3     1  UNL1        0.0407
      6 C          62.8249   88.3198   12.2809 C.3     1  UNL1        0.0744
      7 N          64.4012   92.0644   12.6923 N.am    1  UNL1       -0.3026
      8 C          65.4541   92.4746   11.7058 C.2     1  UNL1        0.2256
      9 O          65.7942   92.0168   11.1489 O.2     1  UNL1       -0.2748
     10 H          64.0512   92.7186   13.3394 H       1  UNL1        0.1497
     11 C          65.9738   93.8817   11.7052 C.3     1  UNL1        0.0902
     12 C          65.0673   93.9382   10.5114 C.3     1  UNL1        0.0298
     13 C          64.9326   95.2125    9.7317 C.3     1  UNL1        0.0694
     14 N          65.7044   96.4302   10.1457 N.3     1  UNL1       -0.2974
     15 C          66.6108   96.3737   11.3395 C.3     1  UNL1        0.0694
     16 C          66.7455   95.0995   12.1193 C.3     1  UNL1        0.0298
     17 H          65.0201   97.1639   10.3300 H       1  UNL1        0.1232
     18 C          66.6997   93.3364   12.8992 C.ar    1  UNL1       -0.0145
     19 C          67.6951   92.2271   12.7296 C.ar    1  UNL1       -0.0038
     20 C          68.4210   91.6818   13.9236 C.ar    1  UNL1       -0.0003
     21 C          68.1517   92.2458   15.2872 C.ar    1  UNL1       -0.0000
     22 C          67.1563   93.3551   15.4568 C.ar    1  UNL1       -0.0003
     23 C          66.4303   93.9004   14.2628 C.ar    1  UNL1       -0.0038
     24 C          64.5296   90.6962   14.0452 C.2     1  UNL1        0.0664
     25 O          65.1860   90.3061   14.2740 O.co2   1  UNL1       -0.5476
     26 O          63.9369   91.5369   15.1370 O.co2   1  UNL1       -0.5476
     27 C          61.5953   87.8257   10.0462 C.3     1  UNL1        0.0992
     28 C          63.4600   84.3348   10.3400 C.ar    1  UNL1        0.1452
     29 C          63.3877   83.8545    8.9208 C.ar    1  UNL1        0.0375
     30 C          62.7180   84.6980    7.8768 C.ar    1  UNL1        0.0029
     31 C          62.1205   86.0217    8.2519 C.ar    1  UNL1       -0.0027
     32 C          62.1928   86.5020    9.6711 C.ar    1  UNL1       -0.0031
     33 C          62.8626   85.6585   10.7152 C.ar    1  UNL1        0.0346
     34 O          64.1298   83.4913   11.3840 O.3     1  UNL1       -0.4504
     35 C          62.7576   83.3235   13.5838 C.ar    1  UNL1        0.1730
     36 C          61.9304   82.5171   14.5405 C.ar    1  UNL1        0.0401
     37 C          61.6482   81.0720   14.2542 C.ar    1  UNL1        0.0033
     38 C          62.1931   80.4333   13.0112 C.ar    1  UNL1        0.0033
     39 C          63.0203   81.2398   12.0545 C.ar    1  UNL1        0.0406
     40 C          63.3026   82.6849   12.3408 C.ar    1  UNL1        0.1789
     41 C          64.3347   85.1666   14.5143 C.3     1  UNL1        0.2526
     42 O          63.0399   84.7686   13.8701 O.3     1  UNL1       -0.4684
@<TRIPOS>UNITY_ATOM_ATTR
25 1
charge -1
@<TRIPOS>BOND
     1    41    42    1
     2    42    35    1
     3    35    36   ar
     4    36    37   ar
     5    37    38   ar
     6    38    39   ar
     7    39    40   ar
     8    40    34    1
     9    34    28    1
    10    28    29   ar
    11    29    30   ar
    12    30    31   ar
    13    31    32   ar
    14    32    27    1
    15    27     1    1
    16     1     2    1
    17     2     3    1
    18     3     4    1
    19     4     7    1
    20     7     8   am
    21     8     9    2
    22     8    11    1
    23    11    18    1
    24    18    19   ar
    25    19    20   ar
    26    20    21   ar
    27    21    22   ar
    28    22    23   ar
    29    11    12    1
    30    12    13    1
    31    13    14    1
    32    14    15    1
    33    15    16    1
    34     4    24    1
    35    24    25   ar
    36    24    26   ar
    37     4     5    1
    38     5     6    1
    39    32    33   ar
    40    40    35   ar
    41    33    28   ar
    42     6     1    1
    43    16    11    1
    44    23    18   ar
    45     7    10    1
    46    14    17    1
@<TRIPOS>MOLECULE
*****
 42 46 0 0 0
SMALL
GASTEIGER

@<TRIPOS>ATOM
      1 N          61.9150   90.1245   11.0185 N.3     1  UNL1       -0.2688
      2 C          63.3298   90.6003   10.8715 C.3     1  UNL1        0.0744
      3 C          64.2173   90.6983   12.0769 C.3     1  UNL1        0.0407
      4 C          63.6898   90.3203   13.4293 C.3     1  UNL1        0.0913
      5 C          62.2748   89.8444   13.5762 C.3     1  UNL1        0.0407
      6 C          61.3875   89.7465   12.3708 C.3     1  UNL1        0.0744
      7 N          65.0904   90.7122   13.7962 N.am    1  UNL1       -0.3026
      8 C          65.5258   92.1423   13.6727 C.2     1  UNL1        0.2256
      9 O          65.0853   92.7580   13.4232 O.2     1  UNL1       -0.2748
     10 H          65.7239   90.0308   14.1180 H       1  UNL1        0.1497
     11 C          66.9264   92.5342   14.0397 C.3     1  UNL1        0.0902
     12 C          66.4321   92.0558   15.3726 C.3     1  UNL1        0.0298
     13 C          67.3411   92.0881   16.5653 C.3     1  UNL1        0.0694
     14 N          68.7445   92.5989   16.4251 N.3     1  UNL1       -0.2974
     15 C          69.2388   93.0773   15.0921 C.3     1  UNL1        0.0694
     16 C          68.3298   93.0449   13.8994 C.3     1  UNL1        0.0298
     17 H          69.3637   91.8417   16.7143 H       1  UNL1        0.1232
     18 C          66.9342   92.8765   12.5793 C.ar    1  UNL1       -0.0145
     19 C          66.2652   94.1303   12.0993 C.ar    1  UNL1       -0.0038
     20 C          66.2730   94.4727   10.6390 C.ar    1  UNL1       -0.0003
     21 C          66.9498   93.5613    9.6585 C.ar    1  UNL1       -0.0000
     22 C          67.6187   92.3074   10.1385 C.ar    1  UNL1       -0.0003
     23 C          67.6110   91.9650   11.5988 C.ar    1  UNL1       -0.0038
     24 C          63.6487   90.0784   14.9090 C.2     1  UNL1        0.0664
     25 O          63.8002   89.3935   15.2876 O.co2   1  UNL1       -0.5476
     26 O          63.2921   91.1973   15.8423 O.co2   1  UNL1       -0.5476
     27 C          61.0276   90.0266    9.8131 C.3     1  UNL1        0.0992
     28 C          61.3581   86.1768    8.9076 C.ar    1  UNL1        0.1452
     29 C          60.2437   86.0222    7.9155 C.ar    1  UNL1        0.0375
     30 C          59.3906   87.2025    7.5560 C.ar    1  UNL1        0.0029
     31 C          59.6519   88.5372    8.1885 C.ar    1  UNL1       -0.0027
     32 C          60.7663   88.6918    9.1806 C.ar    1  UNL1       -0.0031
     33 C          61.6195   87.5115    9.5401 C.ar    1  UNL1        0.0346
     34 O          62.2112   84.9965    9.2671 O.3     1  UNL1       -0.4504
     35 C          63.5427   83.6444   11.0416 C.ar    1  UNL1        0.1730
     36 C          64.1070   83.5208   12.4259 C.ar    1  UNL1        0.0401
     37 C          63.9043   84.6258   13.4199 C.ar    1  UNL1        0.0033
     38 C          63.1373   85.8543   13.0296 C.ar    1  UNL1        0.0033
     39 C          62.5730   85.9779   11.6454 C.ar    1  UNL1        0.0406
     40 C          62.7756   84.8729   10.6514 C.ar    1  UNL1        0.1789
     41 C          63.3468   81.1357   10.3951 C.3     1  UNL1        0.2526
     42 O          63.7453   82.5394   10.0477 O.3     1  UNL1       -0.4684
@<TRIPOS>UNITY_ATOM_ATTR
25 1
charge -1
@<TRIPOS>BOND
     1    41    42    1
     2    42    35    1
     3    35    36   ar
     4    36    37   ar
     5    37    38   ar
     6    38    39   ar
     7    39    40   ar
     8    40    34    1
     9    34    28    1
    10    28    29   ar
    11    29    30   ar
    12    30    31   ar
    13    31    32   ar
    14    32    27    1
    15    27     1    1
    16     1     2    1
    17     2     3    1
    18     3     4    1
    19     4     7    1
    20     7     8   am
    21     8     9    2
    22     8    11    1
    23    11    18    1
    24    18    19   ar
    25    19    20   ar
    26    20    21   ar
    27    21    22   ar
    28    22    23   ar
    29    11    12    1
    30    12    13    1
    31    13    14    1
    32    14    15    1
    33    15    16    1
    34     4    24    1
    35    24    25   ar
    36    24    26   ar
    37     4     5    1
    38     5     6    1
    39    32    33   ar
    40    40    35   ar
    41    33    28   ar
    42     6     1    1
    43    16    11    1
    44    23    18   ar
    45     7    10    1
    46    14    17    1
@<TRIPOS>MOLECULE
*****
 42 46 0 0 0
SMALL
GASTEIGER

@<TRIPOS>ATOM
      1 N          61.7950   90.0794   10.3835 N.3     1  UNL1       -0.2688
      2 C          62.4613   89.7906   11.6960 C.3     1  UNL1        0.0744
      3 C          63.6993   90.5405   12.0896 C.3     1  UNL1        0.0407
      4 C          64.2710   91.5792   11.1708 C.3     1  UNL1        0.0913
      5 C          63.6046   91.8680    9.8583 C.3     1  UNL1        0.0407
      6 C          62.3666   91.1181    9.4647 C.3     1  UNL1        0.0744
      7 N          65.2545   91.6610   12.3004 N.am    1  UNL1       -0.3026
      8 C          64.7774   91.9648   13.6897 C.2     1  UNL1        0.2256
      9 O          64.0259   92.0963   13.9208 O.2     1  UNL1       -0.2748
     10 H          66.2132   91.5153   12.1300 H       1  UNL1        0.1497
     11 C          65.7609   92.0466   14.8193 C.3     1  UNL1        0.0902
     12 C          66.2401   93.1889   13.9735 C.3     1  UNL1        0.0298
     13 C          67.4178   94.0064   14.4147 C.3     1  UNL1        0.0694
     14 N          68.1162   93.6816   15.7018 N.3     1  UNL1       -0.2974
     15 C          67.6370   92.5393   16.5477 C.3     1  UNL1        0.0694
     16 C          66.4593   91.7218   16.1064 C.3     1  UNL1        0.0298
     17 H          68.0675   94.5187   16.2826 H       1  UNL1        0.1232
     18 C          64.9400   90.8759   15.2728 C.ar    1  UNL1       -0.0145
     19 C          65.1261   89.5346   14.6275 C.ar    1  UNL1       -0.0038
     20 C          64.3053   88.3639   15.0809 C.ar    1  UNL1       -0.0003
     21 C          63.2985   88.5343   16.1796 C.ar    1  UNL1       -0.0000
     22 C          63.1124   89.8756   16.8249 C.ar    1  UNL1       -0.0003
     23 C          63.9332   91.0464   16.3715 C.ar    1  UNL1       -0.0038
     24 C          65.1842   92.6463   10.6443 C.2     1  UNL1        0.0664
     25 O          64.9854   93.3915   10.4429 O.co2   1  UNL1       -0.5476
     26 O          66.6427   92.3556   10.4481 O.co2   1  UNL1       -0.5476
     27 C          60.5570   89.3295    9.9899 C.3     1  UNL1        0.0992
     28 C          61.8734   85.7035    9.0574 C.ar    1  UNL1        0.1452
     29 C          60.8997   85.3158    7.9842 C.ar    1  UNL1        0.0375
     30 C          59.8119   86.2660    7.5796 C.ar    1  UNL1        0.0029
     31 C          59.6976   87.6039    8.2482 C.ar    1  UNL1       -0.0027
     32 C          60.6712   87.9916    9.3213 C.ar    1  UNL1       -0.0031
     33 C          61.7591   87.0414    9.7260 C.ar    1  UNL1        0.0346
     34 O          62.9612   84.7534    9.4620 O.3     1  UNL1       -0.4504
     35 C          63.5390   82.9788   11.2695 C.ar    1  UNL1        0.1730
     36 C          63.7058   82.5997   12.7111 C.ar    1  UNL1        0.0401
     37 C          63.4616   83.6160   13.7870 C.ar    1  UNL1        0.0033
     38 C          63.0507   85.0115   13.4212 C.ar    1  UNL1        0.0033
     39 C          62.8839   85.3905   11.9795 C.ar    1  UNL1        0.0406
     40 C          63.1280   84.3742   10.9037 C.ar    1  UNL1        0.1789
     41 C          63.1382   80.6109   10.2783 C.3     1  UNL1        0.2526
     42 O          63.7832   81.9625   10.1936 O.3     1  UNL1       -0.4684
@<TRIPOS>UNITY_ATOM_ATTR
25 1
charge -1
@<TRIPOS>BOND
     1    41    42    1
     2    42    35    1
     3    35    36   ar
     4    36    37   ar
     5    37    38   ar
     6    38    39   ar
     7    39    40   ar
     8    40    34    1
     9    34    28    1
    10    28    29   ar
    11    29    30   ar
    12    30    31   ar
    13    31    32   ar
    14    32    27    1
    15    27     1    1
    16     1     2    1
    17     2     3    1
    18     3     4    1
    19     4     7    1
    20     7     8   am
    21     8     9    2
    22     8    11    1
    23    11    18    1
    24    18    19   ar
    25    19    20   ar
    26    20    21   ar
    27    21    22   ar
    28    22    23   ar
    29    11    12    1
    30    12    13    1
    31    13    14    1
    32    14    15    1
    33    15    16    1
    34     4    24    1
    35    24    25   ar
    36    24    26   ar
    37     4     5    1
    38     5     6    1
    39    32    33   ar
    40    40    35   ar
    41    33    28   ar
    42     6     1    1
    43    16    11    1
    44    23    18   ar
    45     7    10    1
    46    14    17    1
