@<TRIPOS>MOLECULE
*****
 23 24 0 0 0
SMALL
GASTEIGER

@<TRIPOS>ATOM
      1 C          66.5216   92.2767   14.6855 C.ar    1  UNL1        0.1858
      2 N          66.0953   91.6274   13.4023 N.ar    1  UNL1       -0.2022
      3 C          64.6645   91.2024   13.5509 C.ar    1  UNL1        0.2314
      4 O          64.2064   91.5891   14.9259 O.2     1  UNL1       -0.4213
      5 C          65.3542   92.2531   15.6272 C.ar    1  UNL1        0.2169
      6 N          65.3375   92.7977   17.0247 N.pl3   1  UNL1       -0.3273
      7 H          64.5187   92.7349   17.5677 H       1  UNL1        0.1452
      8 H          66.1453   93.2180   17.3989 H       1  UNL1        0.1452
      9 C          63.8369   90.5120   12.5075 C.ar    1  UNL1        0.0536
     10 C          63.4333   89.0798   12.6971 C.ar    1  UNL1        0.0046
     11 C          62.6058   88.3895   11.6537 C.ar    1  UNL1        0.0040
     12 C          62.1820   89.1313   10.4208 C.ar    1  UNL1        0.0714
     13 C          62.5856   90.5634   10.2312 C.ar    1  UNL1        0.0040
     14 C          63.4131   91.2538   11.2746 C.ar    1  UNL1        0.0046
     15 C          61.3544   88.4408    9.3774 C.3     1  UNL1        0.4186
     16 F          60.5269   87.7504    8.3341 F       1  UNL1       -0.1659
     17 F          62.3896   87.3605    9.2712 F       1  UNL1       -0.1659
     18 F          60.3192   89.5211    9.4837 F       1  UNL1       -0.1659
     19 N          69.0817   92.3326   14.2464 N.am    1  UNL1       -0.3239
     20 C          67.8773   92.8492   14.9761 C.2     1  UNL1        0.2650
     21 O          68.0285   93.9383   15.9964 O.2     1  UNL1       -0.2686
     22 H          69.9715   92.7084   14.4371 H       1  UNL1        0.1453
     23 H          68.9825   91.6179   13.5767 H       1  UNL1        0.1453
@<TRIPOS>BOND
     1    19    20   am
     2    20    21    2
     3    20     1    1
     4     1     2   ar
     5     2     3   ar
     6     3     9    1
     7     9    10   ar
     8    10    11   ar
     9    11    12   ar
    10    12    15    1
    11    15    16    1
    12    15    17    1
    13    15    18    1
    14    12    13   ar
    15    13    14   ar
    16     3     4   ar
    17     4     5   ar
    18     5     6    1
    19     5     1   ar
    20    14     9   ar
    21    19    22    1
    22    19    23    1
    23     6     7    1
    24     6     8    1
@<TRIPOS>MOLECULE
*****
 23 24 0 0 0
SMALL
GASTEIGER

@<TRIPOS>ATOM
      1 C          63.6501   84.3091   13.5146 C.ar    1  UNL1        0.1858
      2 N          62.8003   85.4020   12.9370 N.ar    1  UNL1       -0.2022
      3 C          62.5893   85.1052   11.4819 C.ar    1  UNL1        0.2314
      4 O          63.3087   83.8289   11.1601 O.2     1  UNL1       -0.4213
      5 C          63.9643   83.3369   12.4163 C.ar    1  UNL1        0.2169
      6 N          64.7892   82.0913   12.5507 N.pl3   1  UNL1       -0.3273
      7 H          64.9400   81.5139   11.7678 H       1  UNL1        0.1452
      8 H          65.1799   81.8513   13.4219 H       1  UNL1        0.1452
      9 C          61.7978   85.9384   10.5178 C.ar    1  UNL1        0.0536
     10 C          60.9273   87.0494   11.0257 C.ar    1  UNL1        0.0046
     11 C          60.1359   87.8825   10.0616 C.ar    1  UNL1        0.0040
     12 C          60.2150   87.6048    8.5897 C.ar    1  UNL1        0.0714
     13 C          61.0855   86.4938    8.0818 C.ar    1  UNL1        0.0040
     14 C          61.8769   85.6606    9.0459 C.ar    1  UNL1        0.0046
     15 C          59.4235   88.4380    7.6256 C.3     1  UNL1        0.4186
     16 F          58.6321   89.2712    6.6616 F       1  UNL1       -0.1659
     17 F          58.8818   87.1908    6.9924 F       1  UNL1       -0.1659
     18 F          59.9653   89.6852    8.2589 F       1  UNL1       -0.1659
     19 N          64.4271   85.4493   15.7160 N.am    1  UNL1       -0.3239
     20 C          64.1057   84.2065   14.9400 C.2     1  UNL1        0.2650
     21 O          64.2398   82.8611   15.5894 O.2     1  UNL1       -0.2686
     22 H          64.7261   85.3820   16.6515 H       1  UNL1        0.1453
     23 H          64.3390   86.3324   15.2897 H       1  UNL1        0.1453
@<TRIPOS>BOND
     1    19    20   am
     2    20    21    2
     3    20     1    1
     4     1     2   ar
     5     2     3   ar
     6     3     9    1
     7     9    10   ar
     8    10    11   ar
     9    11    12   ar
    10    12    15    1
    11    15    16    1
    12    15    17    1
    13    15    18    1
    14    12    13   ar
    15    13    14   ar
    16     3     4   ar
    17     4     5   ar
    18     5     6    1
    19     5     1   ar
    20    14     9   ar
    21    19    22    1
    22    19    23    1
    23     6     7    1
    24     6     8    1
@<TRIPOS>MOLECULE
*****
 23 24 0 0 0
SMALL
GASTEIGER

@<TRIPOS>ATOM
      1 C          61.7382   88.4962   10.9570 C.ar    1  UNL1        0.1858
      2 N          62.8267   88.7892   11.9466 N.ar    1  UNL1       -0.2022
      3 C          63.1132   90.2609   11.8983 C.ar    1  UNL1        0.2314
      4 O          62.2018   90.8773   10.8789 O.2     1  UNL1       -0.4213
      5 C          61.3520   89.7867   10.2971 C.ar    1  UNL1        0.2169
      6 N          60.3006   89.9567    9.2408 N.pl3   1  UNL1       -0.3273
      7 H          60.1184   90.8490    8.8667 H       1  UNL1        0.1452
      8 H          59.7927   89.1761    8.9216 H       1  UNL1        0.1452
      9 C          64.1322   90.9883   12.7245 C.ar    1  UNL1        0.0536
     10 C          64.9670   92.0694   12.1047 C.ar    1  UNL1        0.0046
     11 C          65.9860   92.7968   12.9309 C.ar    1  UNL1        0.0040
     12 C          66.1701   92.4430   14.3769 C.ar    1  UNL1        0.0714
     13 C          65.3352   91.3619   14.9967 C.ar    1  UNL1        0.0040
     14 C          64.3163   90.6346   14.1705 C.ar    1  UNL1        0.0046
     15 C          67.1891   93.1705   15.2031 C.3     1  UNL1        0.4186
     16 F          68.2081   93.8978   16.0292 F       1  UNL1       -0.1659
     17 F          66.8465   94.4499   14.4992 F       1  UNL1       -0.1659
     18 F          67.5317   91.8910   15.9069 F       1  UNL1       -0.1659
     19 N          61.4910   85.9777   11.5456 N.am    1  UNL1       -0.3239
     20 C          61.1409   87.1492   10.6765 C.2     1  UNL1        0.2650
     21 O          60.1934   86.9735    9.5269 O.2     1  UNL1       -0.2686
     22 H          61.0989   85.0936   11.3615 H       1  UNL1        0.1453
     23 H          62.1128   86.0930   12.3000 H       1  UNL1        0.1453
@<TRIPOS>BOND
     1    19    20   am
     2    20    21    2
     3    20     1    1
     4     1     2   ar
     5     2     3   ar
     6     3     9    1
     7     9    10   ar
     8    10    11   ar
     9    11    12   ar
    10    12    15    1
    11    15    16    1
    12    15    17    1
    13    15    18    1
    14    12    13   ar
    15    13    14   ar
    16     3     4   ar
    17     4     5   ar
    18     5     6    1
    19     5     1   ar
    20    14     9   ar
    21    19    22    1
    22    19    23    1
    23     6     7    1
    24     6     8    1
@<TRIPOS>MOLECULE
*****
 23 24 0 0 0
SMALL
GASTEIGER

@<TRIPOS>ATOM
      1 C          62.5163   88.8330   11.1052 C.ar    1  UNL1        0.1858
      2 N          62.1947   87.3771   10.9416 N.ar    1  UNL1       -0.2022
      3 C          62.7944   86.6369   12.1003 C.ar    1  UNL1        0.2314
      4 O          63.4865   87.6354   12.9800 O.2     1  UNL1       -0.4213
      5 C          63.3147   88.9927   12.3650 C.ar    1  UNL1        0.2169
      6 N          63.8476   90.2831   12.9136 N.pl3   1  UNL1       -0.3273
      7 H          64.3633   90.2858   13.7522 H       1  UNL1        0.1452
      8 H          63.6817   91.1273   12.4350 H       1  UNL1        0.1452
      9 C          62.7157   85.1578   12.3375 C.ar    1  UNL1        0.0536
     10 C          62.7908   84.2074   11.1795 C.ar    1  UNL1        0.0046
     11 C          62.7121   82.7284   11.4168 C.ar    1  UNL1        0.0040
     12 C          62.5583   82.1998   12.8121 C.ar    1  UNL1        0.0714
     13 C          62.4832   83.1502   13.9702 C.ar    1  UNL1        0.0040
     14 C          62.5619   84.6292   13.7329 C.ar    1  UNL1        0.0046
     15 C          62.4796   80.7208   13.0494 C.3     1  UNL1        0.4186
     16 F          62.4009   79.2418   13.2867 F       1  UNL1       -0.1659
     17 F          62.8559   80.4712   11.6190 F       1  UNL1       -0.1659
     18 F          62.1034   80.9703   14.4798 F       1  UNL1       -0.1659
     19 N          60.8752   89.7925    9.3342 N.am    1  UNL1       -0.3239
     20 C          62.1106   89.9357   10.1727 C.2     1  UNL1        0.2650
     21 O          62.9405   91.1817   10.0788 O.2     1  UNL1       -0.2686
     22 H          60.6090   90.5162    8.7222 H       1  UNL1        0.1453
     23 H          60.3305   88.9747    9.3958 H       1  UNL1        0.1453
@<TRIPOS>BOND
     1    19    20   am
     2    20    21    2
     3    20     1    1
     4     1     2   ar
     5     2     3   ar
     6     3     9    1
     7     9    10   ar
     8    10    11   ar
     9    11    12   ar
    10    12    15    1
    11    15    16    1
    12    15    17    1
    13    15    18    1
    14    12    13   ar
    15    13    14   ar
    16     3     4   ar
    17     4     5   ar
    18     5     6    1
    19     5     1   ar
    20    14     9   ar
    21    19    22    1
    22    19    23    1
    23     6     7    1
    24     6     8    1
@<TRIPOS>MOLECULE
*****
 23 24 0 0 0
SMALL
GASTEIGER

@<TRIPOS>ATOM
      1 C          61.4662   88.6228   10.5898 C.ar    1  UNL1        0.1858
      2 N          62.8016   89.2631   10.8278 N.ar    1  UNL1       -0.2022
      3 C          62.7631   89.9302   12.1707 C.ar    1  UNL1        0.2314
      4 O          61.4039   89.7023   12.7628 O.2     1  UNL1       -0.4213
      5 C          60.6024   88.8942   11.7858 C.ar    1  UNL1        0.2169
      6 N          59.1857   88.4378   11.9720 N.pl3   1  UNL1       -0.3273
      7 H          58.6989   88.6672   12.7964 H       1  UNL1        0.1452
      8 H          58.7426   87.9088   11.2697 H       1  UNL1        0.1452
      9 C          63.8867   90.6917   12.8094 C.ar    1  UNL1        0.0536
     10 C          64.3375   90.3406   14.1963 C.ar    1  UNL1        0.0046
     11 C          65.4610   91.1021   14.8350 C.ar    1  UNL1        0.0040
     12 C          66.1337   92.2145   14.0867 C.ar    1  UNL1        0.0714
     13 C          65.6829   92.5656   12.6998 C.ar    1  UNL1        0.0040
     14 C          64.5594   91.8042   12.0612 C.ar    1  UNL1        0.0046
     15 C          67.2573   92.9760   14.7254 C.3     1  UNL1        0.4186
     16 F          68.3807   93.7374   15.3641 F       1  UNL1       -0.1659
     17 F          67.9025   91.6840   15.1308 F       1  UNL1       -0.1659
     18 F          66.6120   94.2680   14.3201 F       1  UNL1       -0.1659
     19 N          61.9083   86.6990    8.9005 N.am    1  UNL1       -0.3239
     20 C          61.0650   87.8472    9.3702 C.2     1  UNL1        0.2650
     21 O          59.8206   88.2199    8.6202 O.2     1  UNL1       -0.2686
     22 H          61.6449   86.1900    8.1000 H       1  UNL1        0.1453
     23 H          62.7250   86.4544    9.3928 H       1  UNL1        0.1453
@<TRIPOS>BOND
     1    19    20   am
     2    20    21    2
     3    20     1    1
     4     1     2   ar
     5     2     3   ar
     6     3     9    1
     7     9    10   ar
     8    10    11   ar
     9    11    12   ar
    10    12    15    1
    11    15    16    1
    12    15    17    1
    13    15    18    1
    14    12    13   ar
    15    13    14   ar
    16     3     4   ar
    17     4     5   ar
    18     5     6    1
    19     5     1   ar
    20    14     9   ar
    21    19    22    1
    22    19    23    1
    23     6     7    1
    24     6     8    1
@<TRIPOS>MOLECULE
*****
 23 24 0 0 0
SMALL
GASTEIGER

@<TRIPOS>ATOM
      1 C          60.6205   87.8063    8.9864 C.ar    1  UNL1        0.1858
      2 N          60.8201   86.3868    9.4281 N.ar    1  UNL1       -0.2022
      3 C          61.8251   86.3848   10.5418 C.ar    1  UNL1        0.2314
      4 O          62.2465   87.8031   10.7883 O.2     1  UNL1       -0.4213
      5 C          61.5021   88.6816    9.8271 C.ar    1  UNL1        0.2169
      6 N          61.6187   90.1736    9.7246 N.pl3   1  UNL1       -0.3273
      7 H          62.2282   90.6621   10.3239 H       1  UNL1        0.1452
      8 H          61.0858   90.6643    9.0579 H       1  UNL1        0.1452
      9 C          62.3214   85.1766   11.2793 C.ar    1  UNL1        0.0536
     10 C          62.8588   84.0013   10.5178 C.ar    1  UNL1        0.0046
     11 C          63.3551   82.7932   11.2554 C.ar    1  UNL1        0.0040
     12 C          63.3140   82.7603   12.7544 C.ar    1  UNL1        0.0714
     13 C          62.7766   83.9355   13.5160 C.ar    1  UNL1        0.0040
     14 C          62.2803   85.1437   12.7784 C.ar    1  UNL1        0.0046
     15 C          63.8103   81.5520   13.4920 C.3     1  UNL1        0.4186
     16 F          64.3066   80.3439   14.2295 F       1  UNL1       -0.1659
     17 F          63.3612   80.6764   12.3599 F       1  UNL1       -0.1659
     18 F          64.2593   82.4276   14.6241 F       1  UNL1       -0.1659
     19 N          58.6785   87.3299    7.3276 N.am    1  UNL1       -0.3239
     20 C          59.7008   88.2692    7.8956 C.2     1  UNL1        0.2650
     21 O          59.8034   89.6715    7.3729 O.2     1  UNL1       -0.2686
     22 H          58.0749   87.6338    6.6116 H       1  UNL1        0.1453
     23 H          58.6112   86.4096    7.6706 H       1  UNL1        0.1453
@<TRIPOS>BOND
     1    19    20   am
     2    20    21    2
     3    20     1    1
     4     1     2   ar
     5     2     3   ar
     6     3     9    1
     7     9    10   ar
     8    10    11   ar
     9    11    12   ar
    10    12    15    1
    11    15    16    1
    12    15    17    1
    13    15    18    1
    14    12    13   ar
    15    13    14   ar
    16     3     4   ar
    17     4     5   ar
    18     5     6    1
    19     5     1   ar
    20    14     9   ar
    21    19    22    1
    22    19    23    1
    23     6     7    1
    24     6     8    1
@<TRIPOS>MOLECULE
*****
 23 24 0 0 0
SMALL
GASTEIGER

@<TRIPOS>ATOM
      1 C          62.5393   82.2155   12.8443 C.ar    1  UNL1        0.1858
      2 N          62.5852   83.4787   13.6519 N.ar    1  UNL1       -0.2022
      3 C          63.2979   84.5210   12.8421 C.ar    1  UNL1        0.2314
      4 O          63.6925   83.9020   11.5340 O.2     1  UNL1       -0.4213
      5 C          63.2236   82.4771   11.5353 C.ar    1  UNL1        0.2169
      6 N          63.4070   81.4876   10.4230 N.pl3   1  UNL1       -0.3273
      7 H          63.8722   81.7553    9.5977 H       1  UNL1        0.1452
      8 H          63.0620   80.5704   10.5183 H       1  UNL1        0.1452
      9 C          63.5685   85.9342   13.2661 C.ar    1  UNL1        0.0536
     10 C          64.2523   86.2073   14.5729 C.ar    1  UNL1        0.0046
     11 C          64.5229   87.6205   14.9967 C.ar    1  UNL1        0.0040
     12 C          64.1097   88.7605   14.1138 C.ar    1  UNL1        0.0714
     13 C          63.4259   88.4874   12.8070 C.ar    1  UNL1        0.0040
     14 C          63.1553   87.0743   12.3831 C.ar    1  UNL1        0.0046
     15 C          64.3803   90.1737   14.5378 C.3     1  UNL1        0.4186
     16 F          64.6509   91.5869   14.9616 F       1  UNL1       -0.1659
     17 F          63.8881   89.8539   15.9181 F       1  UNL1       -0.1659
     18 F          64.8724   90.4935   13.1574 F       1  UNL1       -0.1659
     19 N          60.7489   80.9200   14.2103 N.am    1  UNL1       -0.3239
     20 C          61.9181   80.9185   13.2707 C.2     1  UNL1        0.2650
     21 O          62.4661   79.6200   12.7574 O.2     1  UNL1       -0.2686
     22 H          60.3412   80.0687   14.4902 H       1  UNL1        0.1453
     23 H          60.3892   81.7723   14.5472 H       1  UNL1        0.1453
@<TRIPOS>BOND
     1    19    20   am
     2    20    21    2
     3    20     1    1
     4     1     2   ar
     5     2     3   ar
     6     3     9    1
     7     9    10   ar
     8    10    11   ar
     9    11    12   ar
    10    12    15    1
    11    15    16    1
    12    15    17    1
    13    15    18    1
    14    12    13   ar
    15    13    14   ar
    16     3     4   ar
    17     4     5   ar
    18     5     6    1
    19     5     1   ar
    20    14     9   ar
    21    19    22    1
    22    19    23    1
    23     6     7    1
    24     6     8    1
@<TRIPOS>MOLECULE
*****
 23 24 0 0 0
SMALL
GASTEIGER

@<TRIPOS>ATOM
      1 C          61.2024   88.7070   10.2613 C.ar    1  UNL1        0.1858
      2 N          61.8806   87.8031   11.2478 N.ar    1  UNL1       -0.2022
      3 C          61.6910   86.3883   10.7867 C.ar    1  UNL1        0.2314
      4 O          60.8956   86.4178    9.5154 O.2     1  UNL1       -0.4213
      5 C          60.5936   87.8508    9.1906 C.ar    1  UNL1        0.2169
      6 N          59.8188   88.3414    8.0036 N.pl3   1  UNL1       -0.3273
      7 H          59.4568   87.6983    7.3520 H       1  UNL1        0.1452
      8 H          59.6724   89.3066    7.8761 H       1  UNL1        0.1452
      9 C          62.2063   85.1598   11.4761 C.ar    1  UNL1        0.0536
     10 C          62.5751   83.9480   10.6727 C.ar    1  UNL1        0.0046
     11 C          63.0904   82.7195   11.3621 C.ar    1  UNL1        0.0040
     12 C          63.2370   82.7029   12.8548 C.ar    1  UNL1        0.0714
     13 C          62.8682   83.9147   13.6582 C.ar    1  UNL1        0.0040
     14 C          62.3529   85.1432   12.9688 C.ar    1  UNL1        0.0046
     15 C          63.7523   81.4743   13.5442 C.3     1  UNL1        0.4186
     16 F          64.2677   80.2459   14.2336 F       1  UNL1       -0.1659
     17 F          63.2933   80.6339   12.3897 F       1  UNL1       -0.1659
     18 F          64.2113   82.3147   14.6987 F       1  UNL1       -0.1659
     19 N          62.3621   91.0188   10.0155 N.am    1  UNL1       -0.3239
     20 C          61.1433   90.2041   10.3330 C.2     1  UNL1        0.2650
     21 O          59.8655   90.8864   10.7222 O.2     1  UNL1       -0.2686
     22 H          62.3233   92.0014   10.0626 H       1  UNL1        0.1453
     23 H          63.2008   90.5709    9.7601 H       1  UNL1        0.1453
@<TRIPOS>BOND
     1    19    20   am
     2    20    21    2
     3    20     1    1
     4     1     2   ar
     5     2     3   ar
     6     3     9    1
     7     9    10   ar
     8    10    11   ar
     9    11    12   ar
    10    12    15    1
    11    15    16    1
    12    15    17    1
    13    15    18    1
    14    12    13   ar
    15    13    14   ar
    16     3     4   ar
    17     4     5   ar
    18     5     6    1
    19     5     1   ar
    20    14     9   ar
    21    19    22    1
    22    19    23    1
    23     6     7    1
    24     6     8    1
@<TRIPOS>MOLECULE
*****
 23 24 0 0 0
SMALL
GASTEIGER

@<TRIPOS>ATOM
      1 C          62.5078   82.0860   12.7502 C.ar    1  UNL1        0.1858
      2 N          62.3296   83.5661   12.9162 N.ar    1  UNL1       -0.2022
      3 C          62.6808   84.2242   11.6148 C.ar    1  UNL1        0.2314
      4 O          63.0760   83.1508   10.6444 O.2     1  UNL1       -0.4213
      5 C          62.9691   81.8293   11.3461 C.ar    1  UNL1        0.2169
      6 N          63.2705   80.4869   10.7487 N.pl3   1  UNL1       -0.3273
      7 H          63.5691   80.4203    9.8129 H       1  UNL1        0.1452
      8 H          63.1699   79.6723   11.2923 H       1  UNL1        0.1452
      9 C          62.6433   85.6971   11.3332 C.ar    1  UNL1        0.0536
     10 C          63.0684   86.6736   12.3893 C.ar    1  UNL1        0.0046
     11 C          63.0309   88.1465   12.1077 C.ar    1  UNL1        0.0040
     12 C          62.5683   88.6427   10.7699 C.ar    1  UNL1        0.0714
     13 C          62.1432   87.6661    9.7137 C.ar    1  UNL1        0.0040
     14 C          62.1807   86.1933    9.9954 C.ar    1  UNL1        0.0046
     15 C          62.5308   90.1156   10.4883 C.3     1  UNL1        0.4186
     16 F          62.4933   91.5884   10.2067 F       1  UNL1       -0.1659
     17 F          63.6099   90.3377   11.5063 F       1  UNL1       -0.1659
     18 F          61.4518   89.8935    9.4704 F       1  UNL1       -0.1659
     19 N          60.8671   80.7316   14.2413 N.am    1  UNL1       -0.3239
     20 C          62.2670   81.0454   13.8033 C.2     1  UNL1        0.2650
     21 O          63.4260   80.3186   14.4183 O.2     1  UNL1       -0.2686
     22 H          60.7090   80.0485   14.9325 H       1  UNL1        0.1453
     23 H          60.1063   81.2086   13.8376 H       1  UNL1        0.1453
@<TRIPOS>BOND
     1    19    20   am
     2    20    21    2
     3    20     1    1
     4     1     2   ar
     5     2     3   ar
     6     3     9    1
     7     9    10   ar
     8    10    11   ar
     9    11    12   ar
    10    12    15    1
    11    15    16    1
    12    15    17    1
    13    15    18    1
    14    12    13   ar
    15    13    14   ar
    16     3     4   ar
    17     4     5   ar
    18     5     6    1
    19     5     1   ar
    20    14     9   ar
    21    19    22    1
    22    19    23    1
    23     6     7    1
    24     6     8    1
