@<TRIPOS>MOLECULE
*****
 28 30 0 0 0
SMALL
GASTEIGER

@<TRIPOS>ATOM
      1 C          62.7524   87.9803   11.6589 C.ar    1  UNL1        0.0550
      2 C          62.3829   88.7295   10.4130 C.ar    1  UNL1        0.0046
      3 C          62.6777   90.1963   10.3047 C.ar    1  UNL1        0.0015
      4 C          63.3420   90.9138   11.4422 C.ar    1  UNL1        0.0199
      5 C          63.7115   90.1646   12.6880 C.ar    1  UNL1        0.1221
      6 C          63.4167   88.6979   12.7964 C.ar    1  UNL1        0.0244
      7 N          63.2228   85.6646   12.7388 N.am    1  UNL1       -0.2804
      8 C          62.4577   86.5135   11.7673 C.2     1  UNL1        0.2495
      9 O          61.3978   85.8957   10.9041 O.2     1  UNL1       -0.2698
     10 H          63.9185   86.0700   13.3053 H       1  UNL1        0.1552
     11 C          63.1330   80.9237   10.6137 C.3     1  UNL1        0.0334
     12 C          62.8831   81.8273   11.7845 C.ar    1  UNL1        0.0068
     13 C          63.1779   83.2941   11.6763 C.ar    1  UNL1        0.0126
     14 C          62.9280   84.1977   12.8471 C.ar    1  UNL1        0.0504
     15 C          62.3834   83.6347   14.1263 C.ar    1  UNL1        0.0170
     16 C          62.0886   82.1680   14.2346 C.ar    1  UNL1        0.0306
     17 C          62.3385   81.2643   13.0637 C.ar    1  UNL1        0.1362
     18 F          62.0437   79.7975   13.1721 F       1  UNL1       -0.2045
     19 S          64.3757   90.8821   13.8255 S.O2    1  UNL1        0.0603
     20 O          64.4935   89.5873   14.5735 O.2     1  UNL1       -0.1530
     21 O          64.2580   92.1769   13.0775 O.2     1  UNL1       -0.1530
     22 N          65.0400   91.5996   14.9631 N.3     1  UNL1       -0.1782
     23 H          64.9673   90.9905   15.7780 H       1  UNL1        0.1488
     24 C          66.4795   92.0073   14.8543 C.3     1  UNL1        0.1075
     25 C          67.2829   92.6978   15.9163 C.3     1  UNL1        0.0520
     26 C          68.6682   92.9133   15.3827 C.3     1  UNL1        0.1437
     27 O          68.7209   92.3560   13.9911 O.3     1  UNL1       -0.3522
     28 C          67.3682   91.7961   13.6645 C.3     1  UNL1        0.1595
@<TRIPOS>BOND
     1    11    12    1
     2    12    13   ar
     3    13    14   ar
     4    14     7    1
     5     7     8   am
     6     8     9    2
     7     8     1    1
     8     1     2   ar
     9     2     3   ar
    10     3     4   ar
    11     4     5   ar
    12     5    19    1
    13    19    20    2
    14    19    21    2
    15    19    22    1
    16    24    22    1
    17    24    25    1
    18    25    26    1
    19    26    27    1
    20    27    28    1
    21     5     6   ar
    22    14    15   ar
    23    15    16   ar
    24    16    17   ar
    25    17    18    1
    26    17    12   ar
    27     6     1   ar
    28    28    24    1
    29     7    10    1
    30    22    23    1
@<TRIPOS>MOLECULE
*****
 28 30 0 0 0
SMALL
GASTEIGER

@<TRIPOS>ATOM
      1 C          63.6602   86.6863   15.2598 C.ar    1  UNL1        0.0550
      2 C          63.0738   86.5213   16.6305 C.ar    1  UNL1        0.0046
      3 C          62.8830   87.7187   17.5137 C.ar    1  UNL1        0.0015
      4 C          63.2786   89.0809   17.0262 C.ar    1  UNL1        0.0199
      5 C          63.8650   89.2459   15.6555 C.ar    1  UNL1        0.1221
      6 C          64.0558   88.0487   14.7722 C.ar    1  UNL1        0.0244
      7 N          62.7626   85.0728   13.4320 N.am    1  UNL1       -0.2804
      8 C          63.8510   85.4891   14.3766 C.2     1  UNL1        0.2495
      9 O          65.1302   84.7080   14.4379 O.2     1  UNL1       -0.2698
     10 H          61.9231   85.5853   13.3918 H       1  UNL1        0.1552
     11 C          62.5032   79.9353   12.6979 C.3     1  UNL1        0.0334
     12 C          62.8237   81.3067   12.1818 C.ar    1  UNL1        0.0068
     13 C          62.6329   82.5040   13.0649 C.ar    1  UNL1        0.0126
     14 C          62.9535   83.8754   12.5488 C.ar    1  UNL1        0.0504
     15 C          63.4649   84.0495   11.1495 C.ar    1  UNL1        0.0170
     16 C          63.6558   82.8522   10.2663 C.ar    1  UNL1        0.0306
     17 C          63.3352   81.4808   10.7825 C.ar    1  UNL1        0.1362
     18 F          63.5260   80.2835    9.8992 F       1  UNL1       -0.2045
     19 S          64.2605   90.6082   15.1679 S.O2    1  UNL1        0.0603
     20 O          64.9987   89.9835   14.0213 O.2     1  UNL1       -0.1530
     21 O          63.5223   91.2329   16.3145 O.2     1  UNL1       -0.1530
     22 N          64.6561   91.9705   14.6803 N.3     1  UNL1       -0.1782
     23 H          64.0744   92.6427   15.1804 H       1  UNL1        0.1488
     24 C          66.0751   92.4353   14.8230 C.3     1  UNL1        0.1075
     25 C          66.7808   92.7299   16.1136 C.3     1  UNL1        0.0520
     26 C          68.1795   93.1638   15.7884 C.3     1  UNL1        0.1437
     27 O          68.3381   93.1374   14.2970 O.3     1  UNL1       -0.3522
     28 C          67.0376   92.6872   13.7004 C.3     1  UNL1        0.1595
@<TRIPOS>BOND
     1    11    12    1
     2    12    13   ar
     3    13    14   ar
     4    14     7    1
     5     7     8   am
     6     8     9    2
     7     8     1    1
     8     1     2   ar
     9     2     3   ar
    10     3     4   ar
    11     4     5   ar
    12     5    19    1
    13    19    20    2
    14    19    21    2
    15    19    22    1
    16    24    22    1
    17    24    25    1
    18    25    26    1
    19    26    27    1
    20    27    28    1
    21     5     6   ar
    22    14    15   ar
    23    15    16   ar
    24    16    17   ar
    25    17    18    1
    26    17    12   ar
    27     6     1   ar
    28    28    24    1
    29     7    10    1
    30    22    23    1
@<TRIPOS>MOLECULE
*****
 28 30 0 0 0
SMALL
GASTEIGER

@<TRIPOS>ATOM
      1 C          63.6030   86.9269   15.3038 C.ar    1  UNL1        0.0550
      2 C          63.2339   87.0694   16.7507 C.ar    1  UNL1        0.0046
      3 C          63.1329   88.4327   17.3683 C.ar    1  UNL1        0.0015
      4 C          63.4011   89.6535   16.5389 C.ar    1  UNL1        0.0199
      5 C          63.7702   89.5110   15.0920 C.ar    1  UNL1        0.1221
      6 C          63.8711   88.1478   14.4745 C.ar    1  UNL1        0.0244
      7 N          62.4593   84.8234   14.2953 N.am    1  UNL1       -0.2804
      8 C          63.7039   85.5637   14.6863 C.2     1  UNL1        0.2495
      9 O          65.0496   84.9408   14.4597 O.2     1  UNL1       -0.2698
     10 H          61.5761   85.2322   14.4440 H       1  UNL1        0.1552
     11 C          63.6995   81.7909   10.2622 C.3     1  UNL1        0.0334
     12 C          63.1804   81.9439   11.6612 C.ar    1  UNL1        0.0068
     13 C          63.0794   83.3071   12.2788 C.ar    1  UNL1        0.0126
     14 C          62.5603   83.4601   13.6777 C.ar    1  UNL1        0.0504
     15 C          62.1422   82.2499   14.4591 C.ar    1  UNL1        0.0170
     16 C          62.2432   80.8868   13.8415 C.ar    1  UNL1        0.0306
     17 C          62.7624   80.7338   12.4426 C.ar    1  UNL1        0.1362
     18 F          62.8634   79.3705   11.8250 F       1  UNL1       -0.2045
     19 S          64.0383   90.7317   14.2627 S.O2    1  UNL1        0.0603
     20 O          64.1342   91.5584   15.5106 O.2     1  UNL1       -0.1530
     21 O          63.9425   89.9050   13.0148 O.2     1  UNL1       -0.1530
     22 N          64.3065   91.9526   13.4334 N.3     1  UNL1       -0.1782
     23 H          64.2239   92.7558   14.0565 H       1  UNL1        0.1488
     24 C          65.6137   92.0968   12.7119 C.3     1  UNL1        0.1075
     25 C          65.7871   92.4304   11.2597 C.3     1  UNL1        0.0520
     26 C          67.2576   92.4725   10.9663 C.3     1  UNL1        0.1437
     27 O          67.9929   92.1651   12.2371 O.3     1  UNL1       -0.3522
     28 C          66.9769   91.9329   13.3159 C.3     1  UNL1        0.1595
@<TRIPOS>BOND
     1    11    12    1
     2    12    13   ar
     3    13    14   ar
     4    14     7    1
     5     7     8   am
     6     8     9    2
     7     8     1    1
     8     1     2   ar
     9     2     3   ar
    10     3     4   ar
    11     4     5   ar
    12     5    19    1
    13    19    20    2
    14    19    21    2
    15    19    22    1
    16    24    22    1
    17    24    25    1
    18    25    26    1
    19    26    27    1
    20    27    28    1
    21     5     6   ar
    22    14    15   ar
    23    15    16   ar
    24    16    17   ar
    25    17    18    1
    26    17    12   ar
    27     6     1   ar
    28    28    24    1
    29     7    10    1
    30    22    23    1
@<TRIPOS>MOLECULE
*****
 28 30 0 0 0
SMALL
GASTEIGER

@<TRIPOS>ATOM
      1 C          64.1687   89.8630   14.5259 C.ar    1  UNL1        0.0550
      2 C          63.5128   90.4475   15.7417 C.ar    1  UNL1        0.0046
      3 C          63.0606   89.5494   16.8548 C.ar    1  UNL1        0.0015
      4 C          63.2643   88.0669   16.7521 C.ar    1  UNL1        0.0199
      5 C          63.9202   87.4824   15.5363 C.ar    1  UNL1        0.1221
      6 C          64.3723   88.3804   14.4232 C.ar    1  UNL1        0.0244
      7 N          65.8864   91.5535   13.5556 N.am    1  UNL1       -0.2804
      8 C          64.6208   90.7610   13.4128 C.2     1  UNL1        0.2495
      9 O          63.8075   90.8667   12.1569 O.2     1  UNL1       -0.2698
     10 H          66.4203   91.4842   14.3799 H       1  UNL1        0.1552
     11 C          68.5407   92.2675    9.1459 C.3     1  UNL1        0.0334
     12 C          67.6657   92.8085   10.2376 C.ar    1  UNL1        0.0068
     13 C          67.2135   91.9105   11.3507 C.ar    1  UNL1        0.0126
     14 C          66.3386   92.4515   12.4424 C.ar    1  UNL1        0.0504
     15 C          65.9158   93.8905   12.4209 C.ar    1  UNL1        0.0170
     16 C          66.3680   94.7885   11.3078 C.ar    1  UNL1        0.0306
     17 C          67.2429   94.2475   10.2161 C.ar    1  UNL1        0.1362
     18 F          67.6951   95.1455    9.1029 F       1  UNL1       -0.2045
     19 S          64.1239   85.9999   15.4336 S.O2    1  UNL1        0.0603
     20 O          65.4929   86.2274   14.8645 O.2     1  UNL1       -0.1530
     21 O          62.7548   85.7723   16.0027 O.2     1  UNL1       -0.1530
     22 N          64.3276   84.5173   15.3309 N.3     1  UNL1       -0.1782
     23 H          64.0333   84.1172   16.2218 H       1  UNL1        0.1488
     24 C          63.6318   83.7374   14.2550 C.3     1  UNL1        0.1075
     25 C          63.7943   83.9356   12.7770 C.3     1  UNL1        0.0520
     26 C          62.9142   82.9431   12.0767 C.3     1  UNL1        0.1437
     27 O          62.2078   82.1314   13.1218 O.3     1  UNL1       -0.3522
     28 C          62.6513   82.6224   14.4681 C.3     1  UNL1        0.1595
@<TRIPOS>BOND
     1    11    12    1
     2    12    13   ar
     3    13    14   ar
     4    14     7    1
     5     7     8   am
     6     8     9    2
     7     8     1    1
     8     1     2   ar
     9     2     3   ar
    10     3     4   ar
    11     4     5   ar
    12     5    19    1
    13    19    20    2
    14    19    21    2
    15    19    22    1
    16    24    22    1
    17    24    25    1
    18    25    26    1
    19    26    27    1
    20    27    28    1
    21     5     6   ar
    22    14    15   ar
    23    15    16   ar
    24    16    17   ar
    25    17    18    1
    26    17    12   ar
    27     6     1   ar
    28    28    24    1
    29     7    10    1
    30    22    23    1
@<TRIPOS>MOLECULE
*****
 28 30 0 0 0
SMALL
GASTEIGER

@<TRIPOS>ATOM
      1 C          63.5240   90.5521   12.5959 C.ar    1  UNL1        0.0550
      2 C          63.7143   90.3281   14.0668 C.ar    1  UNL1        0.0046
      3 C          64.7759   91.0843   14.8094 C.ar    1  UNL1        0.0015
      4 C          65.6469   92.0644   14.0811 C.ar    1  UNL1        0.0199
      5 C          65.4566   92.2884   12.6102 C.ar    1  UNL1        0.1221
      6 C          64.3952   91.5323   11.8676 C.ar    1  UNL1        0.0244
      7 N          62.7330   89.2894   10.4675 N.am    1  UNL1       -0.2804
      8 C          62.4625   89.7959   11.8532 C.2     1  UNL1        0.2495
      9 O          61.1305   89.5463   12.4964 O.2     1  UNL1       -0.2698
     10 H          63.6072   89.4532   10.0454 H       1  UNL1        0.1552
     11 C          58.8522   89.2030    7.0133 C.3     1  UNL1        0.0334
     12 C          59.7311   88.4900    7.9978 C.ar    1  UNL1        0.0068
     13 C          60.7926   89.2461    8.7404 C.ar    1  UNL1        0.0126
     14 C          61.6715   88.5332    9.7249 C.ar    1  UNL1        0.0504
     15 C          61.4889   87.0642    9.9668 C.ar    1  UNL1        0.0170
     16 C          60.4274   86.3081    9.2242 C.ar    1  UNL1        0.0306
     17 C          59.5485   87.0210    8.2397 C.ar    1  UNL1        0.1362
     18 F          58.4870   86.2648    7.4970 F       1  UNL1       -0.2045
     19 S          66.3277   93.2686   11.8819 S.O2    1  UNL1        0.0603
     20 O          66.0007   92.5939   10.5827 O.2     1  UNL1       -0.1530
     21 O          66.6547   93.9433   13.1810 O.2     1  UNL1       -0.1530
     22 N          67.1988   94.2488   11.1535 N.3     1  UNL1       -0.1782
     23 H          67.8988   93.7034   10.6504 H       1  UNL1        0.1488
     24 C          66.5936   95.1972   10.1614 C.3     1  UNL1        0.1075
     25 C          67.0741   95.4323    8.7600 C.3     1  UNL1        0.0520
     26 C          66.1791   96.4575    8.1290 C.3     1  UNL1        0.1437
     27 O          65.1454   96.8558    9.1404 O.3     1  UNL1       -0.3522
     28 C          65.4016   96.0769   10.3965 C.3     1  UNL1        0.1595
@<TRIPOS>BOND
     1    11    12    1
     2    12    13   ar
     3    13    14   ar
     4    14     7    1
     5     7     8   am
     6     8     9    2
     7     8     1    1
     8     1     2   ar
     9     2     3   ar
    10     3     4   ar
    11     4     5   ar
    12     5    19    1
    13    19    20    2
    14    19    21    2
    15    19    22    1
    16    24    22    1
    17    24    25    1
    18    25    26    1
    19    26    27    1
    20    27    28    1
    21     5     6   ar
    22    14    15   ar
    23    15    16   ar
    24    16    17   ar
    25    17    18    1
    26    17    12   ar
    27     6     1   ar
    28    28    24    1
    29     7    10    1
    30    22    23    1
@<TRIPOS>MOLECULE
*****
 28 30 0 0 0
SMALL
GASTEIGER

@<TRIPOS>ATOM
      1 C          63.6954   88.3717   15.6135 C.ar    1  UNL1        0.0550
      2 C          63.0265   88.4142   16.9555 C.ar    1  UNL1        0.0046
      3 C          62.7360   87.1386   17.6894 C.ar    1  UNL1        0.0015
      4 C          63.1144   85.8206   17.0814 C.ar    1  UNL1        0.0199
      5 C          63.7833   85.7781   15.7395 C.ar    1  UNL1        0.1221
      6 C          64.0738   87.0536   15.0055 C.ar    1  UNL1        0.0244
      7 N          65.3870   90.1805   14.8281 N.am    1  UNL1       -0.2804
      8 C          63.9859   89.6472   14.8796 C.2     1  UNL1        0.2495
      9 O          62.8753   90.3895   14.1971 O.2     1  UNL1       -0.2698
     10 H          66.1159   89.6933   15.2760 H       1  UNL1        0.1552
     11 C          65.2520   92.9886   10.4582 C.3     1  UNL1        0.0334
     12 C          65.6099   92.8600   11.9092 C.ar    1  UNL1        0.0068
     13 C          65.3195   91.5846   12.6431 C.ar    1  UNL1        0.0126
     14 C          65.6774   91.4560   14.0941 C.ar    1  UNL1        0.0504
     15 C          66.3258   92.6030   14.8111 C.ar    1  UNL1        0.0170
     16 C          66.6162   93.8784   14.0771 C.ar    1  UNL1        0.0306
     17 C          66.2583   94.0070   12.6262 C.ar    1  UNL1        0.1362
     18 F          66.5488   95.2825   11.8922 F       1  UNL1       -0.2045
     19 S          64.1617   84.4602   15.1315 S.O2    1  UNL1        0.0603
     20 O          65.4527   85.0529   14.6501 O.2     1  UNL1       -0.1530
     21 O          62.8706   83.8674   15.6129 O.2     1  UNL1       -0.1530
     22 N          64.5401   83.1421   14.5234 N.3     1  UNL1       -0.1782
     23 H          64.2330   82.4188   15.1737 H       1  UNL1        0.1488
     24 C          64.0135   82.7610   13.1716 C.3     1  UNL1        0.1075
     25 C          64.3774   83.4093   11.8687 C.3     1  UNL1        0.0520
     26 C          63.6193   82.7136   10.7772 C.3     1  UNL1        0.1437
     27 O          62.7869   81.6354   11.4055 O.3     1  UNL1       -0.3522
     28 C          63.0306   81.6648   12.8852 C.3     1  UNL1        0.1595
@<TRIPOS>BOND
     1    11    12    1
     2    12    13   ar
     3    13    14   ar
     4    14     7    1
     5     7     8   am
     6     8     9    2
     7     8     1    1
     8     1     2   ar
     9     2     3   ar
    10     3     4   ar
    11     4     5   ar
    12     5    19    1
    13    19    20    2
    14    19    21    2
    15    19    22    1
    16    24    22    1
    17    24    25    1
    18    25    26    1
    19    26    27    1
    20    27    28    1
    21     5     6   ar
    22    14    15   ar
    23    15    16   ar
    24    16    17   ar
    25    17    18    1
    26    17    12   ar
    27     6     1   ar
    28    28    24    1
    29     7    10    1
    30    22    23    1
@<TRIPOS>MOLECULE
*****
 28 30 0 0 0
SMALL
GASTEIGER

@<TRIPOS>ATOM
      1 C          61.9695   87.9658   11.0273 C.ar    1  UNL1        0.0550
      2 C          60.9400   88.5286   10.0928 C.ar    1  UNL1        0.0046
      3 C          60.9280   89.9970    9.7865 C.ar    1  UNL1        0.0015
      4 C          61.9454   90.9026   10.4148 C.ar    1  UNL1        0.0199
      5 C          62.9749   90.3398   11.3493 C.ar    1  UNL1        0.1221
      6 C          62.9870   88.8715   11.6556 C.ar    1  UNL1        0.0244
      7 N          62.7327   85.9865   12.5272 N.am    1  UNL1       -0.2804
      8 C          61.9816   86.4975   11.3336 C.2     1  UNL1        0.2495
      9 O          61.2426   85.5401   10.4462 O.2     1  UNL1       -0.2698
     10 H          63.2178   86.6148   13.1096 H       1  UNL1        0.1552
     11 C          63.1966   81.0616   10.9364 C.3     1  UNL1        0.0334
     12 C          62.9767   82.0557   12.0380 C.ar    1  UNL1        0.0068
     13 C          62.9646   83.5240   11.7319 C.ar    1  UNL1        0.0126
     14 C          62.7448   84.5181   12.8334 C.ar    1  UNL1        0.0504
     15 C          62.5370   84.0438   14.2412 C.ar    1  UNL1        0.0170
     16 C          62.5491   82.5755   14.5474 C.ar    1  UNL1        0.0306
     17 C          62.7689   81.5814   13.4458 C.ar    1  UNL1        0.1362
     18 F          62.7810   80.1130   13.7520 F       1  UNL1       -0.2045
     19 S          63.9924   91.2453   11.9776 S.O2    1  UNL1        0.0603
     20 O          64.0495   90.3482   13.1783 O.2     1  UNL1       -0.1530
     21 O          63.9353   92.1425   10.7769 O.2     1  UNL1       -0.1530
     22 N          65.0099   92.1509   12.6059 N.3     1  UNL1       -0.1782
     23 H          65.5967   91.5663   13.2012 H       1  UNL1        0.1488
     24 C          65.9352   92.9540   11.7405 C.3     1  UNL1        0.1075
     25 C          66.7888   92.4194   10.6289 C.3     1  UNL1        0.0520
     26 C          67.5505   93.5678   10.0362 C.3     1  UNL1        0.1437
     27 O          67.1677   94.8119   10.7815 O.3     1  UNL1       -0.3522
     28 C          66.1694   94.4326   11.8348 C.3     1  UNL1        0.1595
@<TRIPOS>BOND
     1    11    12    1
     2    12    13   ar
     3    13    14   ar
     4    14     7    1
     5     7     8   am
     6     8     9    2
     7     8     1    1
     8     1     2   ar
     9     2     3   ar
    10     3     4   ar
    11     4     5   ar
    12     5    19    1
    13    19    20    2
    14    19    21    2
    15    19    22    1
    16    24    22    1
    17    24    25    1
    18    25    26    1
    19    26    27    1
    20    27    28    1
    21     5     6   ar
    22    14    15   ar
    23    15    16   ar
    24    16    17   ar
    25    17    18    1
    26    17    12   ar
    27     6     1   ar
    28    28    24    1
    29     7    10    1
    30    22    23    1
@<TRIPOS>MOLECULE
*****
 28 30 0 0 0
SMALL
GASTEIGER

@<TRIPOS>ATOM
      1 C          63.9321   88.1338   14.2411 C.ar    1  UNL1        0.0550
      2 C          63.7480   88.6078   15.6523 C.ar    1  UNL1        0.0046
      3 C          63.7724   90.0758   15.9596 C.ar    1  UNL1        0.0015
      4 C          63.9809   91.0698   14.8558 C.ar    1  UNL1        0.0199
      5 C          64.1649   90.5959   13.4446 C.ar    1  UNL1        0.1221
      6 C          64.1405   89.1279   13.1372 C.ar    1  UNL1        0.0244
      7 N          63.0098   86.1407   12.8530 N.am    1  UNL1       -0.2804
      8 C          63.9077   86.6659   13.9337 C.2     1  UNL1        0.2495
      9 O          64.7812   85.7231   14.7071 O.2     1  UNL1       -0.2698
     10 H          62.4365   86.7595   12.3454 H       1  UNL1        0.1552
     11 C          61.7972   81.2765   14.2201 C.3     1  UNL1        0.0334
     12 C          62.3791   82.2406   13.2292 C.ar    1  UNL1        0.0068
     13 C          62.4035   83.7086   13.5365 C.ar    1  UNL1        0.0126
     14 C          62.9855   84.6727   12.5456 C.ar    1  UNL1        0.0504
     15 C          63.5430   84.1689   11.2475 C.ar    1  UNL1        0.0170
     16 C          63.5187   82.7009   10.9402 C.ar    1  UNL1        0.0306
     17 C          62.9367   81.7368   11.9311 C.ar    1  UNL1        0.1362
     18 F          62.9123   80.2688   11.6237 F       1  UNL1       -0.2045
     19 S          64.3734   91.5898   12.3408 S.O2    1  UNL1        0.0603
     20 O          63.6641   90.6771   11.3849 O.2     1  UNL1       -0.1530
     21 O          65.0826   92.5026   13.2966 O.2     1  UNL1       -0.1530
     22 N          64.5818   92.5838   11.2368 N.3     1  UNL1       -0.1782
     23 H          64.1844   93.4670   11.5569 H       1  UNL1        0.1488
     24 C          65.9684   92.8841   10.7499 C.3     1  UNL1        0.1075
     25 C          66.3552   93.9970    9.8214 C.3     1  UNL1        0.0520
     26 C          67.8376   93.9249    9.6037 C.3     1  UNL1        0.1437
     27 O          68.3670   92.7676   10.3976 O.3     1  UNL1       -0.3522
     28 C          67.2118   92.1244   11.1060 C.3     1  UNL1        0.1595
@<TRIPOS>BOND
     1    11    12    1
     2    12    13   ar
     3    13    14   ar
     4    14     7    1
     5     7     8   am
     6     8     9    2
     7     8     1    1
     8     1     2   ar
     9     2     3   ar
    10     3     4   ar
    11     4     5   ar
    12     5    19    1
    13    19    20    2
    14    19    21    2
    15    19    22    1
    16    24    22    1
    17    24    25    1
    18    25    26    1
    19    26    27    1
    20    27    28    1
    21     5     6   ar
    22    14    15   ar
    23    15    16   ar
    24    16    17   ar
    25    17    18    1
    26    17    12   ar
    27     6     1   ar
    28    28    24    1
    29     7    10    1
    30    22    23    1
@<TRIPOS>MOLECULE
*****
 28 30 0 0 0
SMALL
GASTEIGER

@<TRIPOS>ATOM
      1 C          62.0133   88.5267   10.8100 C.ar    1  UNL1        0.0550
      2 C          62.3321   87.0655   10.9258 C.ar    1  UNL1        0.0046
      3 C          61.7055   86.0840    9.9802 C.ar    1  UNL1        0.0015
      4 C          60.7602   86.5636    8.9190 C.ar    1  UNL1        0.0199
      5 C          60.4414   88.0247    8.8032 C.ar    1  UNL1        0.1221
      6 C          61.0679   89.0063    9.7486 C.ar    1  UNL1        0.0244
      7 N          63.4198   89.0168   12.9387 N.am    1  UNL1       -0.2804
      8 C          62.6398   89.5083   11.7554 C.2     1  UNL1        0.2495
      9 O          62.4864   90.9814   11.5177 O.2     1  UNL1       -0.2698
     10 H          63.5206   88.0500   13.0947 H       1  UNL1        0.1552
     11 C          67.1046   92.5254   13.9934 C.3     1  UNL1        0.0334
     12 C          65.8888   91.7527   14.4115 C.ar    1  UNL1        0.0068
     13 C          65.2622   90.7711   13.4661 C.ar    1  UNL1        0.0126
     14 C          64.0464   89.9984   13.8841 C.ar    1  UNL1        0.0504
     15 C          63.4572   90.2073   15.2476 C.ar    1  UNL1        0.0170
     16 C          64.0837   91.1889   16.1930 C.ar    1  UNL1        0.0306
     17 C          65.2995   91.9616   15.7749 C.ar    1  UNL1        0.1362
     18 F          65.9261   92.9433   16.7204 F       1  UNL1       -0.2045
     19 S          59.4961   88.5043    7.7419 S.O2    1  UNL1        0.0603
     20 O          59.4470   87.1223    7.1610 O.2     1  UNL1       -0.1530
     21 O          59.5451   89.8864    8.3228 O.2     1  UNL1       -0.1530
     22 N          58.5507   88.9839    6.6806 N.3     1  UNL1       -0.1782
     23 H          57.6708   89.2036    7.1474 H       1  UNL1        0.1488
     24 C          58.9060   90.1765    5.8430 C.3     1  UNL1        0.1075
     25 C          60.2824   90.5474    5.3760 C.3     1  UNL1        0.0520
     26 C          60.1743   91.8077    4.5697 C.3     1  UNL1        0.1437
     27 O          58.7312   92.2157    4.5384 O.3     1  UNL1       -0.3522
     28 C          57.9474   91.2075    5.3253 C.3     1  UNL1        0.1595
@<TRIPOS>BOND
     1    11    12    1
     2    12    13   ar
     3    13    14   ar
     4    14     7    1
     5     7     8   am
     6     8     9    2
     7     8     1    1
     8     1     2   ar
     9     2     3   ar
    10     3     4   ar
    11     4     5   ar
    12     5    19    1
    13    19    20    2
    14    19    21    2
    15    19    22    1
    16    24    22    1
    17    24    25    1
    18    25    26    1
    19    26    27    1
    20    27    28    1
    21     5     6   ar
    22    14    15   ar
    23    15    16   ar
    24    16    17   ar
    25    17    18    1
    26    17    12   ar
    27     6     1   ar
    28    28    24    1
    29     7    10    1
    30    22    23    1
