@<TRIPOS>MOLECULE
*****
 21 23 0 0 0
SMALL
GASTEIGER

@<TRIPOS>ATOM
      1 C          64.7953   90.9948   14.2855 C.ar    1  UNL1        0.0501
      2 C          63.7880   90.4093   15.2302 C.ar    1  UNL1        0.1059
      3 N          62.6611   89.8465   14.4158 N.ar    1  UNL1       -0.2368
      4 C          62.9720   90.0841   12.9677 C.ar    1  UNL1        0.1108
      5 S          64.2910   90.7938   12.8872 S.2     1  UNL1       -0.0664
      6 O          69.8227   91.9447   13.3781 O.3     1  UNL1       -0.5055
      7 C          68.5949   92.1388   14.2177 C.ar    1  UNL1        0.1337
      8 C          68.6530   93.0018   15.4431 C.ar    1  UNL1        0.0366
      9 C          67.4252   93.1959   16.2827 C.ar    1  UNL1        0.0031
     10 C          66.1393   92.5269   15.8969 C.ar    1  UNL1        0.0007
     11 C          66.0812   91.6638   14.6714 C.ar    1  UNL1        0.0106
     12 C          67.3090   91.4698   13.8318 C.ar    1  UNL1        0.0372
     13 H          70.6259   92.3626   13.6192 H       1  UNL1        0.2922
     14 C          62.1144   89.6826   11.8043 C.ar    1  UNL1        0.0268
     15 C          60.9323   90.5217   11.4191 C.ar    1  UNL1        0.0022
     16 C          60.0747   90.1201   10.2557 C.ar    1  UNL1        0.0032
     17 C          60.3993   88.8795    9.4777 C.ar    1  UNL1        0.0366
     18 C          61.5815   88.0403    9.8630 C.ar    1  UNL1        0.1337
     19 O          61.9061   86.7996    9.0849 O.3     1  UNL1       -0.5055
     20 C          62.4390   88.4419   11.0263 C.ar    1  UNL1        0.0386
     21 H          61.3704   86.5488    8.3582 H       1  UNL1        0.2922
@<TRIPOS>BOND
     1     6     7    1
     2     7     8   ar
     3     8     9   ar
     4     9    10   ar
     5    10    11   ar
     6    11     1    1
     7     1     2   ar
     8     2     3   ar
     9     3     4   ar
    10     4    14    1
    11    14    15   ar
    12    15    16   ar
    13    16    17   ar
    14    17    18   ar
    15    18    19    1
    16    18    20   ar
    17     4     5   ar
    18    11    12   ar
    19    12     7   ar
    20     5     1   ar
    21    20    14   ar
    22     6    13    1
    23    19    21    1
@<TRIPOS>MOLECULE
*****
 21 23 0 0 0
SMALL
GASTEIGER

@<TRIPOS>ATOM
      1 C          63.5772   90.7442   11.7069 C.ar    1  UNL1        0.0501
      2 C          62.8844   90.0211   12.8236 C.ar    1  UNL1        0.1059
      3 N          62.0285   88.9473   12.2199 N.ar    1  UNL1       -0.2368
      4 C          62.1924   89.0069   10.7301 C.ar    1  UNL1        0.1108
      5 S          63.1496   90.1174   10.4131 S.2     1  UNL1       -0.0664
      6 O          66.6793   93.6556   14.6904 O.3     1  UNL1       -0.5055
      7 C          66.0815   93.3482   13.3495 C.ar    1  UNL1        0.1337
      8 C          66.4369   94.1892   12.1593 C.ar    1  UNL1        0.0366
      9 C          65.8391   93.8818   10.8184 C.ar    1  UNL1        0.0031
     10 C          64.8859   92.7335   10.6676 C.ar    1  UNL1        0.0007
     11 C          64.5305   91.8926   11.8577 C.ar    1  UNL1        0.0106
     12 C          65.1283   92.1999   13.1987 C.ar    1  UNL1        0.0372
     13 H          67.2747   94.3729   14.7846 H       1  UNL1        0.2922
     14 C          61.5175   88.1128    9.7324 C.ar    1  UNL1        0.0268
     15 C          62.0803   86.7529    9.4428 C.ar    1  UNL1        0.0022
     16 C          61.4055   85.8589    8.4451 C.ar    1  UNL1        0.0032
     17 C          60.1679   86.3248    7.7371 C.ar    1  UNL1        0.0366
     18 C          59.6051   87.6848    8.0268 C.ar    1  UNL1        0.1337
     19 O          58.3675   88.1506    7.3187 O.3     1  UNL1       -0.5055
     20 C          60.2799   88.5787    9.0244 C.ar    1  UNL1        0.0386
     21 H          57.9460   87.5921    6.6955 H       1  UNL1        0.2922
@<TRIPOS>BOND
     1     6     7    1
     2     7     8   ar
     3     8     9   ar
     4     9    10   ar
     5    10    11   ar
     6    11     1    1
     7     1     2   ar
     8     2     3   ar
     9     3     4   ar
    10     4    14    1
    11    14    15   ar
    12    15    16   ar
    13    16    17   ar
    14    17    18   ar
    15    18    19    1
    16    18    20   ar
    17     4     5   ar
    18    11    12   ar
    19    12     7   ar
    20     5     1   ar
    21    20    14   ar
    22     6    13    1
    23    19    21    1
@<TRIPOS>MOLECULE
*****
 21 23 0 0 0
SMALL
GASTEIGER

@<TRIPOS>ATOM
      1 C          65.1164   91.7556   12.6588 C.ar    1  UNL1        0.0501
      2 C          65.0408   92.4188   11.3155 C.ar    1  UNL1        0.1059
      3 N          63.8998   91.8053   10.5592 N.ar    1  UNL1       -0.2368
      4 C          63.2703   90.7630   11.4352 C.ar    1  UNL1        0.1108
      5 S          64.0222   90.7323   12.7328 S.2     1  UNL1       -0.0664
      6 O          70.0424   92.3534   14.2006 O.3     1  UNL1       -0.5055
      7 C          68.5746   92.3609   14.5094 C.ar    1  UNL1        0.1337
      8 C          68.1018   92.6749   15.8979 C.ar    1  UNL1        0.0366
      9 C          66.6340   92.6825   16.2067 C.ar    1  UNL1        0.0031
     10 C          65.6389   92.3761   15.1271 C.ar    1  UNL1        0.0007
     11 C          66.1116   92.0621   13.7386 C.ar    1  UNL1        0.0106
     12 C          67.5794   92.0545   13.4298 C.ar    1  UNL1        0.0372
     13 H          70.6640   92.5448   14.8751 H       1  UNL1        0.2922
     14 C          62.0952   89.9024   11.0766 C.ar    1  UNL1        0.0268
     15 C          62.0235   89.2565    9.7247 C.ar    1  UNL1        0.0022
     16 C          60.8484   88.3959    9.3661 C.ar    1  UNL1        0.0032
     17 C          59.7451   88.1814   10.3593 C.ar    1  UNL1        0.0366
     18 C          59.8168   88.8273   11.7113 C.ar    1  UNL1        0.1337
     19 O          58.7134   88.6127   12.7045 O.3     1  UNL1       -0.5055
     20 C          60.9918   89.6878   12.0698 C.ar    1  UNL1        0.0386
     21 H          57.9794   88.0752   12.4804 H       1  UNL1        0.2922
@<TRIPOS>BOND
     1     6     7    1
     2     7     8   ar
     3     8     9   ar
     4     9    10   ar
     5    10    11   ar
     6    11     1    1
     7     1     2   ar
     8     2     3   ar
     9     3     4   ar
    10     4    14    1
    11    14    15   ar
    12    15    16   ar
    13    16    17   ar
    14    17    18   ar
    15    18    19    1
    16    18    20   ar
    17     4     5   ar
    18    11    12   ar
    19    12     7   ar
    20     5     1   ar
    21    20    14   ar
    22     6    13    1
    23    19    21    1
@<TRIPOS>MOLECULE
*****
 21 23 0 0 0
SMALL
GASTEIGER

@<TRIPOS>ATOM
      1 C          61.5687   88.5511   10.8092 C.ar    1  UNL1        0.0501
      2 C          60.5849   89.1608   11.7634 C.ar    1  UNL1        0.1059
      3 N          61.3372   90.0767   12.6826 N.ar    1  UNL1       -0.2368
      4 C          62.7861   90.0331   12.2965 C.ar    1  UNL1        0.1108
      5 S          62.9291   89.0902   11.1387 S.2     1  UNL1       -0.0664
      6 O          58.1654   86.5035    7.4588 O.3     1  UNL1       -0.5055
      7 C          59.5466   86.5501    8.0420 C.ar    1  UNL1        0.1337
      8 C          60.6073   85.6195    7.5334 C.ar    1  UNL1        0.0366
      9 C          61.9885   85.6661    8.1166 C.ar    1  UNL1        0.0031
     10 C          62.3089   86.6432    9.2085 C.ar    1  UNL1        0.0007
     11 C          61.2482   87.5738    9.7172 C.ar    1  UNL1        0.0106
     12 C          59.8670   87.5273    9.1340 C.ar    1  UNL1        0.0372
     13 H          57.9652   85.8931    6.7767 H       1  UNL1        0.2922
     14 C          63.8969   90.7980   12.9530 C.ar    1  UNL1        0.0268
     15 C          64.2312   90.5469   14.3936 C.ar    1  UNL1        0.0022
     16 C          65.3420   91.3119   15.0501 C.ar    1  UNL1        0.0032
     17 C          66.1185   92.3279   14.2660 C.ar    1  UNL1        0.0366
     18 C          65.7842   92.5790   12.8254 C.ar    1  UNL1        0.1337
     19 O          66.5607   93.5950   12.0414 O.3     1  UNL1       -0.5055
     20 C          64.6734   91.8141   12.1690 C.ar    1  UNL1        0.0386
     21 H          67.2546   94.0728   12.4515 H       1  UNL1        0.2922
@<TRIPOS>BOND
     1     6     7    1
     2     7     8   ar
     3     8     9   ar
     4     9    10   ar
     5    10    11   ar
     6    11     1    1
     7     1     2   ar
     8     2     3   ar
     9     3     4   ar
    10     4    14    1
    11    14    15   ar
    12    15    16   ar
    13    16    17   ar
    14    17    18   ar
    15    18    19    1
    16    18    20   ar
    17     4     5   ar
    18    11    12   ar
    19    12     7   ar
    20     5     1   ar
    21    20    14   ar
    22     6    13    1
    23    19    21    1
@<TRIPOS>MOLECULE
*****
 21 23 0 0 0
SMALL
GASTEIGER

@<TRIPOS>ATOM
      1 C          63.1923   84.5218   13.2758 C.ar    1  UNL1        0.0501
      2 C          63.8230   85.1372   14.4897 C.ar    1  UNL1        0.1059
      3 N          63.9014   86.6190   14.2705 N.ar    1  UNL1       -0.2368
      4 C          63.3191   86.9194   12.9211 C.ar    1  UNL1        0.1108
      5 S          62.8809   85.6232   12.3064 S.2     1  UNL1       -0.0664
      6 O          63.0699   80.3666   10.1581 O.3     1  UNL1       -0.5055
      7 C          62.8595   80.9837   11.5090 C.ar    1  UNL1        0.1337
      8 C          62.3775   80.1404   12.6520 C.ar    1  UNL1        0.0366
      9 C          62.1671   80.7574   14.0029 C.ar    1  UNL1        0.0031
     10 C          62.4387   82.2179   14.2108 C.ar    1  UNL1        0.0007
     11 C          62.9207   83.0612   13.0679 C.ar    1  UNL1        0.0106
     12 C          63.1310   82.4442   11.7170 C.ar    1  UNL1        0.0372
     13 H          62.9002   79.4543   10.0282 H       1  UNL1        0.2922
     14 C          63.1966   88.2775   12.2962 C.ar    1  UNL1        0.0268
     15 C          62.5092   88.4347   10.9723 C.ar    1  UNL1        0.0022
     16 C          62.3867   89.7929   10.3474 C.ar    1  UNL1        0.0032
     17 C          62.9516   90.9937   11.0464 C.ar    1  UNL1        0.0366
     18 C          63.6392   90.8365   12.3703 C.ar    1  UNL1        0.1337
     19 O          64.2041   92.0375   13.0693 O.3     1  UNL1       -0.5055
     20 C          63.7616   89.4785   12.9951 C.ar    1  UNL1        0.0386
     21 H          64.1276   92.8858   12.6789 H       1  UNL1        0.2922
@<TRIPOS>BOND
     1     6     7    1
     2     7     8   ar
     3     8     9   ar
     4     9    10   ar
     5    10    11   ar
     6    11     1    1
     7     1     2   ar
     8     2     3   ar
     9     3     4   ar
    10     4    14    1
    11    14    15   ar
    12    15    16   ar
    13    16    17   ar
    14    17    18   ar
    15    18    19    1
    16    18    20   ar
    17     4     5   ar
    18    11    12   ar
    19    12     7   ar
    20     5     1   ar
    21    20    14   ar
    22     6    13    1
    23    19    21    1
@<TRIPOS>MOLECULE
*****
 21 23 0 0 0
SMALL
GASTEIGER

@<TRIPOS>ATOM
      1 C          63.3916   90.6059   11.6548 C.ar    1  UNL1        0.0501
      2 C          62.5771   89.9944   12.7560 C.ar    1  UNL1        0.1059
      3 N          61.7217   88.9177   12.1569 N.ar    1  UNL1       -0.2368
      4 C          62.0076   88.8637   10.6853 C.ar    1  UNL1        0.1108
      5 S          63.0397   89.9071   10.3751 S.2     1  UNL1       -0.0664
      6 O          65.9541   94.6546    9.6444 O.3     1  UNL1       -0.5055
      7 C          65.6651   93.7449   10.8015 C.ar    1  UNL1        0.1337
      8 C          66.3684   93.9497   12.1104 C.ar    1  UNL1        0.0366
      9 C          66.0794   93.0400   13.2675 C.ar    1  UNL1        0.0031
     10 C          65.0872   91.9254   13.1157 C.ar    1  UNL1        0.0007
     11 C          64.3839   91.7205   11.8067 C.ar    1  UNL1        0.0106
     12 C          64.6729   92.6303   10.6496 C.ar    1  UNL1        0.0372
     13 H          66.5739   95.3509    9.7393 H       1  UNL1        0.2922
     14 C          61.3729   87.9302    9.6975 C.ar    1  UNL1        0.0268
     15 C          59.9238   88.0859    9.3426 C.ar    1  UNL1        0.0022
     16 C          59.2891   87.1524    8.3548 C.ar    1  UNL1        0.0032
     17 C          60.1035   86.0634    7.7219 C.ar    1  UNL1        0.0366
     18 C          61.5526   85.9077    8.0767 C.ar    1  UNL1        0.1337
     19 O          62.3670   84.8186    7.4438 O.3     1  UNL1       -0.5055
     20 C          62.1872   86.8411    9.0645 C.ar    1  UNL1        0.0386
     21 H          61.9705   84.2355    6.8267 H       1  UNL1        0.2922
@<TRIPOS>BOND
     1     6     7    1
     2     7     8   ar
     3     8     9   ar
     4     9    10   ar
     5    10    11   ar
     6    11     1    1
     7     1     2   ar
     8     2     3   ar
     9     3     4   ar
    10     4    14    1
    11    14    15   ar
    12    15    16   ar
    13    16    17   ar
    14    17    18   ar
    15    18    19    1
    16    18    20   ar
    17     4     5   ar
    18    11    12   ar
    19    12     7   ar
    20     5     1   ar
    21    20    14   ar
    22     6    13    1
    23    19    21    1
@<TRIPOS>MOLECULE
*****
 21 23 0 0 0
SMALL
GASTEIGER

@<TRIPOS>ATOM
      1 C          63.4881   84.8226   14.1399 C.ar    1  UNL1        0.0501
      2 C          63.9259   85.2740   15.5018 C.ar    1  UNL1        0.1059
      3 N          64.1338   86.7587   15.4535 N.ar    1  UNL1       -0.2368
      4 C          63.8244   87.2250   14.0617 C.ar    1  UNL1        0.1108
      5 S          63.4254   86.0284   13.2500 S.2     1  UNL1       -0.0664
      6 O          60.4160   80.6430   14.4443 O.3     1  UNL1       -0.5055
      7 C          61.6329   81.3231   13.8908 C.ar    1  UNL1        0.1337
      8 C          62.5308   80.5937   12.9360 C.ar    1  UNL1        0.0366
      9 C          63.7477   81.2739   12.3825 C.ar    1  UNL1        0.0031
     10 C          64.0668   82.6835   12.7838 C.ar    1  UNL1        0.0007
     11 C          63.1690   83.4129   13.7386 C.ar    1  UNL1        0.0106
     12 C          61.9520   82.7327   14.2921 C.ar    1  UNL1        0.0372
     13 H          60.2167   79.7624   14.1936 H       1  UNL1        0.2922
     14 C          63.9007   88.6395   13.5684 C.ar    1  UNL1        0.0268
     15 C          63.2523   89.0168   12.2695 C.ar    1  UNL1        0.0022
     16 C          63.3286   90.4313   11.7762 C.ar    1  UNL1        0.0032
     17 C          64.0533   91.4684   12.5818 C.ar    1  UNL1        0.0366
     18 C          64.7017   91.0911   13.8808 C.ar    1  UNL1        0.1337
     19 O          65.4264   92.1284   14.6864 O.3     1  UNL1       -0.5055
     20 C          64.6254   89.6767   14.3740 C.ar    1  UNL1        0.0386
     21 H          65.4741   93.0120   14.3782 H       1  UNL1        0.2922
@<TRIPOS>BOND
     1     6     7    1
     2     7     8   ar
     3     8     9   ar
     4     9    10   ar
     5    10    11   ar
     6    11     1    1
     7     1     2   ar
     8     2     3   ar
     9     3     4   ar
    10     4    14    1
    11    14    15   ar
    12    15    16   ar
    13    16    17   ar
    14    17    18   ar
    15    18    19    1
    16    18    20   ar
    17     4     5   ar
    18    11    12   ar
    19    12     7   ar
    20     5     1   ar
    21    20    14   ar
    22     6    13    1
    23    19    21    1
@<TRIPOS>MOLECULE
*****
 21 23 0 0 0
SMALL
GASTEIGER

@<TRIPOS>ATOM
      1 C          62.1388   86.0589    9.6520 C.ar    1  UNL1        0.0501
      2 C          63.0405   85.2772    8.7432 C.ar    1  UNL1        0.1059
      3 N          63.5192   84.0690    9.4923 N.ar    1  UNL1       -0.2368
      4 C          62.9133   84.1041   10.8642 C.ar    1  UNL1        0.1108
      5 S          62.0602   85.3340   10.9628 S.2     1  UNL1       -0.0664
      6 O          58.5874   88.6447    6.8769 O.3     1  UNL1       -0.5055
      7 C          59.6629   88.6335    7.9224 C.ar    1  UNL1        0.1337
      8 C          60.0382   89.9040    8.6259 C.ar    1  UNL1        0.0366
      9 C          61.1138   89.8928    9.6714 C.ar    1  UNL1        0.0031
     10 C          61.8139   88.6112   10.0135 C.ar    1  UNL1        0.0007
     11 C          61.4386   87.3407    9.3100 C.ar    1  UNL1        0.0106
     12 C          60.3631   87.3519    8.2645 C.ar    1  UNL1        0.0372
     13 H          58.1500   89.4453    6.6632 H       1  UNL1        0.2922
     14 C          63.1237   83.0878   11.9472 C.ar    1  UNL1        0.0268
     15 C          62.7804   81.6484   11.7018 C.ar    1  UNL1        0.0022
     16 C          62.9908   80.6321   12.7848 C.ar    1  UNL1        0.0032
     17 C          63.5444   81.0552   14.1131 C.ar    1  UNL1        0.0366
     18 C          63.8878   82.4947   14.3585 C.ar    1  UNL1        0.1337
     19 O          64.4414   82.9178   15.6868 O.3     1  UNL1       -0.5055
     20 C          63.6774   83.5109   13.2755 C.ar    1  UNL1        0.0386
     21 H          64.5728   82.2829   16.3633 H       1  UNL1        0.2922
@<TRIPOS>BOND
     1     6     7    1
     2     7     8   ar
     3     8     9   ar
     4     9    10   ar
     5    10    11   ar
     6    11     1    1
     7     1     2   ar
     8     2     3   ar
     9     3     4   ar
    10     4    14    1
    11    14    15   ar
    12    15    16   ar
    13    16    17   ar
    14    17    18   ar
    15    18    19    1
    16    18    20   ar
    17     4     5   ar
    18    11    12   ar
    19    12     7   ar
    20     5     1   ar
    21    20    14   ar
    22     6    13    1
    23    19    21    1
@<TRIPOS>MOLECULE
*****
 21 23 0 0 0
SMALL
GASTEIGER

@<TRIPOS>ATOM
      1 C          63.0593   90.0364   13.0099 C.ar    1  UNL1        0.0501
      2 C          62.7676   89.7811   14.4590 C.ar    1  UNL1        0.1059
      3 N          63.8972   90.3489   15.2662 N.ar    1  UNL1       -0.2368
      4 C          64.8870   90.9551   14.3160 C.ar    1  UNL1        0.1108
      5 S          64.3691   90.7620   12.9216 S.2     1  UNL1       -0.0664
      6 O          61.9735   86.7652    9.1215 O.3     1  UNL1       -0.5055
      7 C          61.6502   88.0007    9.9082 C.ar    1  UNL1        0.1337
      8 C          60.4609   88.8361    9.5375 C.ar    1  UNL1        0.0366
      9 C          60.1376   90.0716   10.3243 C.ar    1  UNL1        0.0031
     10 C          61.0037   90.4717   11.4818 C.ar    1  UNL1        0.0007
     11 C          62.1931   89.6363   11.8524 C.ar    1  UNL1        0.0106
     12 C          62.5163   88.4008   11.0657 C.ar    1  UNL1        0.0372
     13 H          61.4324   86.5152    8.3984 H       1  UNL1        0.2922
     14 C          66.1695   91.6351   14.6939 C.ar    1  UNL1        0.0268
     15 C          66.2292   92.4946   15.9218 C.ar    1  UNL1        0.0022
     16 C          67.5117   93.1745   16.2997 C.ar    1  UNL1        0.0032
     17 C          68.7345   92.9950   15.4498 C.ar    1  UNL1        0.0366
     18 C          68.6748   92.1355   14.2218 C.ar    1  UNL1        0.1337
     19 O          69.8977   91.9560   13.3718 O.3     1  UNL1       -0.5055
     20 C          67.3924   91.4556   13.8440 C.ar    1  UNL1        0.0386
     21 H          70.6988   92.3808   13.6079 H       1  UNL1        0.2922
@<TRIPOS>BOND
     1     6     7    1
     2     7     8   ar
     3     8     9   ar
     4     9    10   ar
     5    10    11   ar
     6    11     1    1
     7     1     2   ar
     8     2     3   ar
     9     3     4   ar
    10     4    14    1
    11    14    15   ar
    12    15    16   ar
    13    16    17   ar
    14    17    18   ar
    15    18    19    1
    16    18    20   ar
    17     4     5   ar
    18    11    12   ar
    19    12     7   ar
    20     5     1   ar
    21    20    14   ar
    22     6    13    1
    23    19    21    1
