@<TRIPOS>MOLECULE
*****
 22 25 0 0 0
SMALL
GASTEIGER

@<TRIPOS>ATOM
      1 O          67.1395   93.6100   11.0480 O.2     1  UNL1       -0.2680
      2 C          66.6910   92.8326   12.2500 C.2     1  UNL1        0.2687
      3 N          67.5049   92.8634   13.5095 N.am    1  UNL1       -0.1741
      4 C          67.0564   92.0861   14.7115 C.2     1  UNL1        0.0886
      5 C          65.7940   91.2780   14.6538 C.2     1  UNL1        0.0143
      6 C          64.9801   91.2473   13.3942 C.2     1  UNL1       -0.0085
      7 C          63.7177   90.4392   13.3365 C.3     1  UNL1        0.0936
      8 C          62.9038   90.4084   12.0770 C.2     1  UNL1        0.1171
      9 C          63.3523   91.1858   10.8750 C.2     1  UNL1        0.0360
     10 C          64.6146   91.9938   10.9327 C.2     1  UNL1        0.0074
     11 C          65.4286   92.0246   12.1923 C.2     1  UNL1        0.0520
     12 N          61.6413   89.6004   12.0193 N.pl3   1  UNL1       -0.1990
     13 H          60.8316   89.9187   12.4799 H       1  UNL1        0.2983
     14 C          61.6126   88.3072   11.2597 C.2     1  UNL1        0.3705
     15 N          62.3110   87.0389   11.6515 N.2     1  UNL1        0.0819
     16 N          62.0105   86.0031   10.6090 N.2     1  UNL1       -0.0365
     17 C          61.1263   86.6314    9.5728 C.2     1  UNL1        0.1346
     18 C          60.5133   86.0909    8.3150 C.3     1  UNL1        0.0792
     19 C          59.6545   86.9741    7.4594 C.2     1  UNL1        0.0010
     20 C          59.4085   88.3982    7.8616 C.2     1  UNL1        0.0950
     21 N          60.0215   88.9388    9.1195 N.2     1  UNL1       -0.2354
     22 C          60.8804   88.0554    9.9750 C.2     1  UNL1        0.1833
@<TRIPOS>BOND
     1     1     2    2
     2     2     3    1
     3     3     4    2
     4     4     5    1
     5     5     6    2
     6     6     7    1
     7     7     8    1
     8     8    12    1
     9    12    14    1
    10    14    15    2
    11    15    16    1
    12    16    17    2
    13    17    18    1
    14    18    19    1
    15    19    20    2
    16    20    21    1
    17    21    22    2
    18     8     9    2
    19     9    10    1
    20    10    11    2
    21    11     2    1
    22    11     6    1
    23    22    14    1
    24    22    17    1
    25    12    13    1
@<TRIPOS>MOLECULE
*****
 22 25 0 0 0
SMALL
GASTEIGER

@<TRIPOS>ATOM
      1 O          66.8751   93.9117   11.2756 O.2     1  UNL1       -0.2680
      2 C          66.4591   93.0680   12.4441 C.2     1  UNL1        0.2687
      3 N          67.1929   93.1780   13.7476 N.am    1  UNL1       -0.1741
      4 C          66.7769   92.3344   14.9160 C.2     1  UNL1        0.0886
      5 C          65.6270   91.3808   14.7809 C.2     1  UNL1        0.0143
      6 C          64.8932   91.2708   13.4773 C.2     1  UNL1       -0.0085
      7 C          63.7432   90.3171   13.3422 C.3     1  UNL1        0.0936
      8 C          63.0093   90.2071   12.0386 C.2     1  UNL1        0.1171
      9 C          63.4254   91.0507   10.8702 C.2     1  UNL1        0.0360
     10 C          64.5753   92.0044   11.0053 C.2     1  UNL1        0.0074
     11 C          65.3092   92.1144   12.3089 C.2     1  UNL1        0.0520
     12 N          61.8594   89.2534   11.9034 N.pl3   1  UNL1       -0.1990
     13 H          61.0193   89.4235   12.3878 H       1  UNL1        0.2983
     14 C          61.9894   88.0407   11.0303 C.2     1  UNL1        0.3705
     15 N          61.6527   87.9651    9.5705 N.2     1  UNL1        0.0819
     16 N          61.9342   86.5684    9.1016 N.2     1  UNL1       -0.0365
     17 C          62.4448   85.7807   10.2716 C.2     1  UNL1        0.1346
     18 C          62.8832   84.3525   10.4057 C.3     1  UNL1        0.0792
     19 C          63.3556   83.8342   11.7315 C.2     1  UNL1        0.0010
     20 C          63.3898   84.7441   12.9236 C.2     1  UNL1        0.0950
     21 N          62.9514   86.1725   12.7896 N.2     1  UNL1       -0.2354
     22 C          62.4790   86.6907   11.4636 C.2     1  UNL1        0.1833
@<TRIPOS>BOND
     1     1     2    2
     2     2     3    1
     3     3     4    2
     4     4     5    1
     5     5     6    2
     6     6     7    1
     7     7     8    1
     8     8    12    1
     9    12    14    1
    10    14    15    2
    11    15    16    1
    12    16    17    2
    13    17    18    1
    14    18    19    1
    15    19    20    2
    16    20    21    1
    17    21    22    2
    18     8     9    2
    19     9    10    1
    20    10    11    2
    21    11     2    1
    22    11     6    1
    23    22    14    1
    24    22    17    1
    25    12    13    1
@<TRIPOS>MOLECULE
*****
 22 25 0 0 0
SMALL
GASTEIGER

@<TRIPOS>ATOM
      1 O          64.2837   83.6294   14.8372 O.2     1  UNL1       -0.2680
      2 C          63.6867   84.3348   13.6557 C.2     1  UNL1        0.2687
      3 N          63.0651   83.5421   12.5443 N.am    1  UNL1       -0.1741
      4 C          62.4681   84.2476   11.3628 C.2     1  UNL1        0.0886
      5 C          62.4928   85.7457   11.2927 C.2     1  UNL1        0.0143
      6 C          63.1144   86.5384   12.4040 C.2     1  UNL1       -0.0085
      7 C          63.1392   88.0366   12.3339 C.3     1  UNL1        0.0936
      8 C          63.7608   88.8293   13.4452 C.2     1  UNL1        0.1171
      9 C          64.3578   88.1238   14.6267 C.2     1  UNL1        0.0360
     10 C          64.3331   86.6257   14.6969 C.2     1  UNL1        0.0074
     11 C          63.7114   85.8330   13.5855 C.2     1  UNL1        0.0520
     12 N          63.7856   90.3275   13.3751 N.pl3   1  UNL1       -0.1990
     13 H          63.4302   90.7891   12.5814 H       1  UNL1        0.2983
     14 C          64.3516   91.1224   14.5142 C.2     1  UNL1        0.3705
     15 N          63.6091   91.5512   15.7450 N.2     1  UNL1        0.0819
     16 N          64.5582   92.3219   16.6140 N.2     1  UNL1       -0.0365
     17 C          65.8873   92.3694   15.9203 C.2     1  UNL1        0.1346
     18 C          67.1974   92.9919   16.3026 C.3     1  UNL1        0.0792
     19 C          68.3798   92.8732   15.3874 C.2     1  UNL1        0.0010
     20 C          68.2521   92.1318   14.0896 C.2     1  UNL1        0.0950
     21 N          66.9420   91.5092   13.7072 N.2     1  UNL1       -0.2354
     22 C          65.7596   91.6281   14.6226 C.2     1  UNL1        0.1833
@<TRIPOS>BOND
     1     1     2    2
     2     2     3    1
     3     3     4    2
     4     4     5    1
     5     5     6    2
     6     6     7    1
     7     7     8    1
     8     8    12    1
     9    12    14    1
    10    14    15    2
    11    15    16    1
    12    16    17    2
    13    17    18    1
    14    18    19    1
    15    19    20    2
    16    20    21    1
    17    21    22    2
    18     8     9    2
    19     9    10    1
    20    10    11    2
    21    11     2    1
    22    11     6    1
    23    22    14    1
    24    22    17    1
    25    12    13    1
@<TRIPOS>MOLECULE
*****
 22 25 0 0 0
SMALL
GASTEIGER

@<TRIPOS>ATOM
      1 O          61.6175   85.7934   11.8351 O.2     1  UNL1       -0.2680
      2 C          61.3336   86.9562   10.9311 C.2     1  UNL1        0.2687
      3 N          60.3765   86.8004    9.7867 N.am    1  UNL1       -0.1741
      4 C          60.0927   87.9633    8.8828 C.2     1  UNL1        0.0886
      5 C          60.7659   89.2819    9.1232 C.2     1  UNL1        0.0143
      6 C          61.7230   89.4377   10.2676 C.2     1  UNL1       -0.0085
      7 C          62.3962   90.7565   10.5080 C.3     1  UNL1        0.0936
      8 C          63.3533   90.9123   11.6524 C.2     1  UNL1        0.1171
      9 C          63.6372   89.7494   12.5564 C.2     1  UNL1        0.0360
     10 C          62.9640   88.4308   12.3160 C.2     1  UNL1        0.0074
     11 C          62.0068   88.2749   11.1715 C.2     1  UNL1        0.0520
     12 N          64.0266   92.2310   11.8929 N.pl3   1  UNL1       -0.1990
     13 H          63.5157   93.0679   11.8043 H       1  UNL1        0.2983
     14 C          65.4782   92.2746   12.2682 C.2     1  UNL1        0.3705
     15 N          66.6368   92.2211   11.3170 N.2     1  UNL1        0.0819
     16 N          67.9008   92.2928   12.1215 N.2     1  UNL1       -0.0365
     17 C          67.5233   92.3905   13.5700 C.2     1  UNL1        0.1346
     18 C          68.3494   92.4883   14.8181 C.3     1  UNL1        0.0792
     19 C          67.6785   92.5749   16.1569 C.2     1  UNL1        0.0010
     20 C          66.1813   92.5637   16.2475 C.2     1  UNL1        0.0950
     21 N          65.3550   92.4659   14.9993 N.2     1  UNL1       -0.2354
     22 C          66.0261   92.3793   13.6606 C.2     1  UNL1        0.1833
@<TRIPOS>BOND
     1     1     2    2
     2     2     3    1
     3     3     4    2
     4     4     5    1
     5     5     6    2
     6     6     7    1
     7     7     8    1
     8     8    12    1
     9    12    14    1
    10    14    15    2
    11    15    16    1
    12    16    17    2
    13    17    18    1
    14    18    19    1
    15    19    20    2
    16    20    21    1
    17    21    22    2
    18     8     9    2
    19     9    10    1
    20    10    11    2
    21    11     2    1
    22    11     6    1
    23    22    14    1
    24    22    17    1
    25    12    13    1
@<TRIPOS>MOLECULE
*****
 22 25 0 0 0
SMALL
GASTEIGER

@<TRIPOS>ATOM
      1 O          58.6402   88.2176    7.4438 O.2     1  UNL1       -0.2680
      2 C          59.8509   87.5926    8.0711 C.2     1  UNL1        0.2687
      3 N          60.3690   86.2816    7.5586 N.am    1  UNL1       -0.1741
      4 C          61.5798   85.6567    8.1859 C.2     1  UNL1        0.0886
      5 C          62.2725   86.3428    9.3258 C.2     1  UNL1        0.0143
      6 C          61.7544   87.6538    9.8383 C.2     1  UNL1       -0.0085
      7 C          62.4471   88.3400   10.9783 C.3     1  UNL1        0.0936
      8 C          61.9290   89.6510   11.4908 C.2     1  UNL1        0.1171
      9 C          60.7183   90.2760   10.8635 C.2     1  UNL1        0.0360
     10 C          60.0256   89.5898    9.7236 C.2     1  UNL1        0.0074
     11 C          60.5436   88.2787    9.2110 C.2     1  UNL1        0.0520
     12 N          62.6217   90.3372   12.6308 N.pl3   1  UNL1       -0.1990
     13 H          62.3082   90.1971   13.5534 H       1  UNL1        0.2983
     14 C          63.7921   91.2369   12.3649 C.2     1  UNL1        0.3705
     15 N          64.2343   91.7345   11.0207 N.2     1  UNL1        0.0819
     16 N          65.4413   92.6021   11.2216 N.2     1  UNL1       -0.0365
     17 C          65.7451   92.6407   12.6901 C.2     1  UNL1        0.1346
     18 C          66.8182   93.3351   13.4751 C.3     1  UNL1        0.0792
     19 C          66.8721   93.1859   14.9666 C.2     1  UNL1        0.0010
     20 C          65.8528   92.3421   15.6733 C.2     1  UNL1        0.0950
     21 N          64.7797   91.6477   14.8882 N.2     1  UNL1       -0.2354
     22 C          64.7259   91.7970   13.3966 C.2     1  UNL1        0.1833
@<TRIPOS>BOND
     1     1     2    2
     2     2     3    1
     3     3     4    2
     4     4     5    1
     5     5     6    2
     6     6     7    1
     7     7     8    1
     8     8    12    1
     9    12    14    1
    10    14    15    2
    11    15    16    1
    12    16    17    2
    13    17    18    1
    14    18    19    1
    15    19    20    2
    16    20    21    1
    17    21    22    2
    18     8     9    2
    19     9    10    1
    20    10    11    2
    21    11     2    1
    22    11     6    1
    23    22    14    1
    24    22    17    1
    25    12    13    1
@<TRIPOS>MOLECULE
*****
 22 25 0 0 0
SMALL
GASTEIGER

@<TRIPOS>ATOM
      1 O          59.9756   89.6796    7.7808 O.2     1  UNL1       -0.2680
      2 C          60.5473   88.6179    8.6729 C.2     1  UNL1        0.2687
      3 N          60.1996   87.1772    8.4421 N.am    1  UNL1       -0.1741
      4 C          60.7712   86.1154    9.3343 C.2     1  UNL1        0.0886
      5 C          61.6907   86.4944   10.4572 C.2     1  UNL1        0.0143
      6 C          62.0384   87.9352   10.6879 C.2     1  UNL1       -0.0085
      7 C          62.9579   88.3142   11.8109 C.3     1  UNL1        0.0936
      8 C          63.3056   89.7550   12.0417 C.2     1  UNL1        0.1171
      9 C          62.7339   90.8167   11.1496 C.2     1  UNL1        0.0360
     10 C          61.8145   90.4377   10.0267 C.2     1  UNL1        0.0074
     11 C          61.4667   88.9969    9.7958 C.2     1  UNL1        0.0520
     12 N          64.2251   90.1340   13.1646 N.pl3   1  UNL1       -0.1990
     13 H          65.1158   90.5045   12.9679 H       1  UNL1        0.2983
     14 C          63.7875   89.9487   14.5873 C.2     1  UNL1        0.3705
     15 N          63.4077   91.0412   15.5424 N.2     1  UNL1        0.0819
     16 N          63.0384   90.4060   16.8502 N.2     1  UNL1       -0.0365
     17 C          63.1899   88.9209   16.7032 C.2     1  UNL1        0.1346
     18 C          62.9661   87.7894   17.6622 C.3     1  UNL1        0.0792
     19 C          63.2053   86.3754   17.2228 C.2     1  UNL1        0.0010
     20 C          63.6683   86.0927   15.8243 C.2     1  UNL1        0.0950
     21 N          63.8921   87.2242   14.8653 N.2     1  UNL1       -0.2354
     22 C          63.6529   88.6383   15.3048 C.2     1  UNL1        0.1833
@<TRIPOS>BOND
     1     1     2    2
     2     2     3    1
     3     3     4    2
     4     4     5    1
     5     5     6    2
     6     6     7    1
     7     7     8    1
     8     8    12    1
     9    12    14    1
    10    14    15    2
    11    15    16    1
    12    16    17    2
    13    17    18    1
    14    18    19    1
    15    19    20    2
    16    20    21    1
    17    21    22    2
    18     8     9    2
    19     9    10    1
    20    10    11    2
    21    11     2    1
    22    11     6    1
    23    22    14    1
    24    22    17    1
    25    12    13    1
@<TRIPOS>MOLECULE
*****
 22 25 0 0 0
SMALL
GASTEIGER

@<TRIPOS>ATOM
      1 O          62.2500   86.0586   18.2930 O.2     1  UNL1       -0.2680
      2 C          63.0058   86.0635   16.9973 C.2     1  UNL1        0.2687
      3 N          63.3765   84.7669   16.3404 N.am    1  UNL1       -0.1741
      4 C          64.1323   84.7718   15.0447 C.2     1  UNL1        0.0886
      5 C          64.5174   86.0731   14.4059 C.2     1  UNL1        0.0143
      6 C          64.1467   87.3697   15.0628 C.2     1  UNL1       -0.0085
      7 C          64.5318   88.6711   14.4240 C.3     1  UNL1        0.0936
      8 C          64.1611   89.9677   15.0809 C.2     1  UNL1        0.1171
      9 C          63.4054   89.9628   16.3766 C.2     1  UNL1        0.0360
     10 C          63.0202   88.6615   17.0154 C.2     1  UNL1        0.0074
     11 C          63.3909   87.3648   16.3585 C.2     1  UNL1        0.0520
     12 N          64.5462   91.2691   14.4422 N.pl3   1  UNL1       -0.1990
     13 H          64.9159   91.9971   14.9923 H       1  UNL1        0.2983
     14 C          64.3681   91.4614   12.9653 C.2     1  UNL1        0.3705
     15 N          65.2349   92.3013   12.0746 N.2     1  UNL1        0.0819
     16 N          64.6944   92.2065   10.6786 N.2     1  UNL1       -0.0365
     17 C          63.4935   91.3080   10.7065 C.2     1  UNL1        0.1346
     18 C          62.5576   90.8497    9.6276 C.3     1  UNL1        0.0792
     19 C          61.4201   89.9309    9.9619 C.2     1  UNL1        0.0010
     20 C          61.2184   89.4704   11.3752 C.2     1  UNL1        0.0950
     21 N          62.1544   89.9287   12.4541 N.2     1  UNL1       -0.2354
     22 C          63.2919   90.8475   12.1197 C.2     1  UNL1        0.1833
@<TRIPOS>BOND
     1     1     2    2
     2     2     3    1
     3     3     4    2
     4     4     5    1
     5     5     6    2
     6     6     7    1
     7     7     8    1
     8     8    12    1
     9    12    14    1
    10    14    15    2
    11    15    16    1
    12    16    17    2
    13    17    18    1
    14    18    19    1
    15    19    20    2
    16    20    21    1
    17    21    22    2
    18     8     9    2
    19     9    10    1
    20    10    11    2
    21    11     2    1
    22    11     6    1
    23    22    14    1
    24    22    17    1
    25    12    13    1
@<TRIPOS>MOLECULE
*****
 22 25 0 0 0
SMALL
GASTEIGER

@<TRIPOS>ATOM
      1 O          62.5484   85.0288    8.0065 O.2     1  UNL1       -0.2680
      2 C          61.3715   85.9429    8.1779 C.2     1  UNL1        0.2687
      3 N          60.1855   85.8172    7.2683 N.am    1  UNL1       -0.1741
      4 C          59.0086   86.7314    7.4398 C.2     1  UNL1        0.0886
      5 C          59.0179   87.7712    8.5208 C.2     1  UNL1        0.0143
      6 C          60.2039   87.8969    9.4304 C.2     1  UNL1       -0.0085
      7 C          60.2132   88.9367   10.5115 C.3     1  UNL1        0.0936
      8 C          61.3993   89.0624   11.4211 C.2     1  UNL1        0.1171
      9 C          62.5761   88.1483   11.2496 C.2     1  UNL1        0.0360
     10 C          62.5669   87.1084   10.1686 C.2     1  UNL1        0.0074
     11 C          61.3808   86.9827    9.2589 C.2     1  UNL1        0.0520
     12 N          61.4086   90.1023   12.5021 N.pl3   1  UNL1       -0.1990
     13 H          60.6178   90.6711   12.6448 H       1  UNL1        0.2983
     14 C          62.6227   90.2755   13.3658 C.2     1  UNL1        0.3705
     15 N          62.8037   89.7311   14.7518 N.2     1  UNL1        0.0819
     16 N          64.1619   90.1426   15.2377 N.2     1  UNL1       -0.0365
     17 C          64.8202   90.9413   14.1519 C.2     1  UNL1        0.1346
     18 C          66.1630   91.6045   14.0673 C.3     1  UNL1        0.0792
     19 C          66.5546   92.3497   12.8258 C.2     1  UNL1        0.0010
     20 C          65.6033   92.4318   11.6689 C.2     1  UNL1        0.0950
     21 N          64.2604   91.7686   11.7535 N.2     1  UNL1       -0.2354
     22 C          63.8689   91.0234   12.9951 C.2     1  UNL1        0.1833
@<TRIPOS>BOND
     1     1     2    2
     2     2     3    1
     3     3     4    2
     4     4     5    1
     5     5     6    2
     6     6     7    1
     7     7     8    1
     8     8    12    1
     9    12    14    1
    10    14    15    2
    11    15    16    1
    12    16    17    2
    13    17    18    1
    14    18    19    1
    15    19    20    2
    16    20    21    1
    17    21    22    2
    18     8     9    2
    19     9    10    1
    20    10    11    2
    21    11     2    1
    22    11     6    1
    23    22    14    1
    24    22    17    1
    25    12    13    1
@<TRIPOS>MOLECULE
*****
 22 25 0 0 0
SMALL
GASTEIGER

@<TRIPOS>ATOM
      1 O          62.7581   90.7897   17.0368 O.2     1  UNL1       -0.2680
      2 C          63.2383   90.1478   15.7690 C.2     1  UNL1        0.2687
      3 N          63.4389   90.9792   14.5368 N.am    1  UNL1       -0.1741
      4 C          63.9192   90.3374   13.2689 C.2     1  UNL1        0.0886
      5 C          64.1988   88.8641   13.2333 C.2     1  UNL1        0.0143
      6 C          63.9982   88.0327   14.4656 C.2     1  UNL1       -0.0085
      7 C          64.2778   86.5594   14.4300 C.3     1  UNL1        0.0936
      8 C          64.0772   85.7280   15.6623 C.2     1  UNL1        0.1171
      9 C          63.5969   86.3698   16.9301 C.2     1  UNL1        0.0360
     10 C          63.3173   87.8431   16.9657 C.2     1  UNL1        0.0074
     11 C          63.5179   88.6746   15.7334 C.2     1  UNL1        0.0520
     12 N          64.3568   84.2547   15.6267 N.pl3   1  UNL1       -0.1990
     13 H          65.1013   83.8821   16.1521 H       1  UNL1        0.2983
     14 C          63.5019   83.3490   14.7907 C.2     1  UNL1        0.3705
     15 N          62.2972   82.5901   15.2627 N.2     1  UNL1        0.0819
     16 N          61.7525   81.8153   14.0995 N.2     1  UNL1       -0.0365
     17 C          62.6205   82.0954   12.9087 C.2     1  UNL1        0.1346
     18 C          62.5661   81.6098   11.4905 C.3     1  UNL1        0.0792
     19 C          63.5928   82.0719   10.4995 C.2     1  UNL1        0.0010
     20 C          64.6741   83.0199   10.9266 C.2     1  UNL1        0.0950
     21 N          64.7285   83.5055   12.3449 N.2     1  UNL1       -0.2354
     22 C          63.7017   83.0433   13.3358 C.2     1  UNL1        0.1833
@<TRIPOS>BOND
     1     1     2    2
     2     2     3    1
     3     3     4    2
     4     4     5    1
     5     5     6    2
     6     6     7    1
     7     7     8    1
     8     8    12    1
     9    12    14    1
    10    14    15    2
    11    15    16    1
    12    16    17    2
    13    17    18    1
    14    18    19    1
    15    19    20    2
    16    20    21    1
    17    21    22    2
    18     8     9    2
    19     9    10    1
    20    10    11    2
    21    11     2    1
    22    11     6    1
    23    22    14    1
    24    22    17    1
    25    12    13    1
