@<TRIPOS>MOLECULE
*****
 42 45 0 0 0
SMALL
GASTEIGER

@<TRIPOS>ATOM
      1 N          64.3434   91.0938   12.8738 N.pl3   1  UNL1       -0.3043
      2 C          63.4675   91.7763   11.8654 C.3     1  UNL1        0.1123
      3 C          62.5871   90.9627   10.9638 C.3     1  UNL1        0.1149
      4 N          62.5825   89.4664   11.0707 N.am    1  UNL1       -0.2747
      5 C          61.7021   88.6528   10.1691 C.2     1  UNL1        0.2442
      6 O          60.8262   89.3354    9.1606 O.2     1  UNL1       -0.2731
      7 C          63.4584   88.7839   12.0791 C.3     1  UNL1        0.1149
      8 C          64.3388   89.5976   12.9807 C.3     1  UNL1        0.1123
      9 C          66.0563   93.0185   13.2076 C.ar    1  UNL1        0.0053
     10 C          66.9367   93.8321   14.1091 C.ar    1  UNL1       -0.0018
     11 C          66.9845   93.5347   15.5786 C.ar    1  UNL1       -0.0002
     12 C          66.1520   92.4237   16.1464 C.ar    1  UNL1        0.0012
     13 C          65.2717   91.6101   15.2449 C.ar    1  UNL1        0.0142
     14 C          65.2238   91.9075   13.7754 C.ar    1  UNL1        0.0451
     15 C          66.0084   93.3159   11.7381 C.3     1  UNL1        0.0780
     16 N          65.4408   94.6173   11.2544 N.3     1  UNL1       -0.2939
     17 H          64.9259   94.4137   10.3977 H       1  UNL1        0.1235
     18 C          66.3548   95.7664   10.9476 C.3     1  UNL1        0.0861
     19 C          67.1251   95.7891    9.6606 C.3     1  UNL1        0.0859
     20 C          66.0248   96.5449    7.4317 C.3     1  UNL1        0.0859
     21 N          66.4394   95.4507    8.3701 N.3     1  UNL1       -0.2952
     22 H          67.0723   94.8419    7.8512 H       1  UNL1        0.1233
     23 C          66.5282   92.3119   10.7524 C.3     1  UNL1        0.0203
     24 C          68.0049   92.0819   10.6240 C.3     1  UNL1        0.0017
     25 C          68.6983   92.3681    9.3249 C.3     1  UNL1        0.0001
     26 C          68.7882   91.5659   11.7944 C.3     1  UNL1        0.0001
     27 C          61.6976   87.1567   10.2760 C.3     1  UNL1        0.1564
     28 N          61.7734   86.3159    9.0361 N.am    1  UNL1       -0.2727
     29 C          62.9920   85.6057    8.5256 C.3     1  UNL1        0.0943
     30 C          62.6157   84.8886    7.2629 C.3     1  UNL1        0.0311
     31 C          61.1645   85.1557    6.9931 C.3     1  UNL1        0.0870
     32 C          60.6439   86.0378    8.0889 C.2     1  UNL1        0.2260
     33 O          59.2404   86.5516    8.2154 O.2     1  UNL1       -0.2749
     34 C          61.6173   86.5012   11.6229 C.3     1  UNL1        0.0564
     35 C          62.3852   85.2408   11.8906 C.ar    1  UNL1       -0.0094
     36 C          62.1451   84.0230   11.0482 C.ar    1  UNL1       -0.0025
     37 C          62.9131   82.7627   11.3159 C.ar    1  UNL1        0.0111
     38 C          63.9212   82.7201   12.4260 C.ar    1  UNL1        0.0585
     39 CL         64.6891   81.4597   12.6936 Cl      1  UNL1       -0.0822
     40 C          64.1612   83.9378   13.2682 C.ar    1  UNL1        0.0225
     41 C          63.3932   85.1982   13.0005 C.ar    1  UNL1        0.0546
     42 CL         63.6333   86.4159   13.8428 Cl      1  UNL1       -0.0825
@<TRIPOS>BOND
     1    20    21    1
     2    21    19    1
     3    19    18    1
     4    18    16    1
     5    16    15    1
     6    15    23    1
     7    23    24    1
     8    24    25    1
     9    24    26    1
    10    15     9    1
    11     9    10   ar
    12    10    11   ar
    13    11    12   ar
    14    12    13   ar
    15    13    14   ar
    16    14     1    1
    17     1     2    1
    18     2     3    1
    19     3     4    1
    20     4     5   am
    21     5     6    2
    22     5    27    1
    23    27    34    1
    24    34    35    1
    25    35    36   ar
    26    36    37   ar
    27    37    38   ar
    28    38    39    1
    29    38    40   ar
    30    40    41   ar
    31    41    42    1
    32    27    28    1
    33    28    29    1
    34    29    30    1
    35    30    31    1
    36    31    32    1
    37    32    33    2
    38     4     7    1
    39     7     8    1
    40    14     9   ar
    41     8     1    1
    42    41    35   ar
    43    32    28   am
    44    21    22    1
    45    16    17    1
@<TRIPOS>MOLECULE
*****
 42 45 0 0 0
SMALL
GASTEIGER

@<TRIPOS>ATOM
      1 N          61.5431   86.3850    9.4949 N.pl3   1  UNL1       -0.3043
      2 C          62.6809   85.7178    8.7805 C.3     1  UNL1        0.1123
      3 C          63.5330   84.7146    9.4998 C.3     1  UNL1        0.1149
      4 N          63.2472   84.3784   10.9336 N.am    1  UNL1       -0.2747
      5 C          64.0993   83.3752   11.6529 C.2     1  UNL1        0.2442
      6 O          65.2371   82.7080   10.9385 O.2     1  UNL1       -0.2731
      7 C          62.1094   85.0456   11.6479 C.3     1  UNL1        0.1149
      8 C          61.2574   86.0489   10.9285 C.3     1  UNL1        0.1123
      9 C          60.6797   88.8202    9.2221 C.ar    1  UNL1        0.0053
     10 C          59.8277   89.8234    8.5028 C.ar    1  UNL1       -0.0018
     11 C          58.9870   89.3948    7.3368 C.ar    1  UNL1       -0.0002
     12 C          58.9984   87.9629    6.8901 C.ar    1  UNL1        0.0012
     13 C          59.8504   86.9597    7.6095 C.ar    1  UNL1        0.0142
     14 C          60.6911   87.3883    8.7755 C.ar    1  UNL1        0.0451
     15 C          61.5203   89.2489   10.3881 C.3     1  UNL1        0.0780
     16 N          62.9184   89.7437   10.1631 N.3     1  UNL1       -0.2939
     17 H          63.5236   89.2097   10.7868 H       1  UNL1        0.1235
     18 C          63.2451   91.1918   10.3777 C.3     1  UNL1        0.0861
     19 C          64.1348   91.5995   11.5145 C.3     1  UNL1        0.0859
     20 C          64.6633   91.1700   14.0217 C.3     1  UNL1        0.0859
     21 N          63.6682   91.4304   12.9300 N.3     1  UNL1       -0.2952
     22 H          63.1729   92.2860   13.1809 H       1  UNL1        0.1233
     23 C          60.9630   89.1828   11.7791 C.3     1  UNL1        0.0203
     24 C          59.5824   89.6980   12.0592 C.3     1  UNL1        0.0017
     25 C          59.1757   91.0570   11.5713 C.3     1  UNL1        0.0001
     26 C          58.6085   88.8544   12.8271 C.3     1  UNL1        0.0001
     27 C          63.8135   83.0391   13.0865 C.3     1  UNL1        0.1564
     28 N          62.6986   82.0954   13.4278 N.am    1  UNL1       -0.2727
     29 C          61.6489   82.3135   14.4768 C.3     1  UNL1        0.0943
     30 C          60.7391   81.1209   14.4773 C.3     1  UNL1        0.0311
     31 C          61.2266   80.1657   13.4286 C.3     1  UNL1        0.0870
     32 C          62.4376   80.7679   12.7798 C.2     1  UNL1        0.2260
     33 O          63.2457   80.1511   11.6770 O.2     1  UNL1       -0.2749
     34 C          64.6427   83.6467   14.1789 C.3     1  UNL1        0.0564
     35 C          64.2636   84.9784   14.7558 C.ar    1  UNL1       -0.0094
     36 C          64.7237   86.2420   14.0913 C.ar    1  UNL1       -0.0025
     37 C          64.3446   87.5737   14.6682 C.ar    1  UNL1        0.0111
     38 C          63.5054   87.6418   15.9096 C.ar    1  UNL1        0.0585
     39 CL         63.1263   88.9735   16.4865 Cl      1  UNL1       -0.0822
     40 C          63.0453   86.3782   16.5741 C.ar    1  UNL1        0.0225
     41 C          63.4244   85.0465   15.9972 C.ar    1  UNL1        0.0546
     42 CL         62.9643   83.7829   16.6617 Cl      1  UNL1       -0.0825
@<TRIPOS>BOND
     1    20    21    1
     2    21    19    1
     3    19    18    1
     4    18    16    1
     5    16    15    1
     6    15    23    1
     7    23    24    1
     8    24    25    1
     9    24    26    1
    10    15     9    1
    11     9    10   ar
    12    10    11   ar
    13    11    12   ar
    14    12    13   ar
    15    13    14   ar
    16    14     1    1
    17     1     2    1
    18     2     3    1
    19     3     4    1
    20     4     5   am
    21     5     6    2
    22     5    27    1
    23    27    34    1
    24    34    35    1
    25    35    36   ar
    26    36    37   ar
    27    37    38   ar
    28    38    39    1
    29    38    40   ar
    30    40    41   ar
    31    41    42    1
    32    27    28    1
    33    28    29    1
    34    29    30    1
    35    30    31    1
    36    31    32    1
    37    32    33    2
    38     4     7    1
    39     7     8    1
    40    14     9   ar
    41     8     1    1
    42    41    35   ar
    43    32    28   am
    44    21    22    1
    45    16    17    1
@<TRIPOS>MOLECULE
*****
 42 45 0 0 0
SMALL
GASTEIGER

@<TRIPOS>ATOM
      1 N          63.4654   85.4316   13.8455 N.pl3   1  UNL1       -0.3043
      2 C          63.0728   85.6507   15.2765 C.3     1  UNL1        0.1123
      3 C          63.2156   87.0104   15.8936 C.3     1  UNL1        0.1149
      4 N          63.7511   88.1510   15.0797 N.am    1  UNL1       -0.2747
      5 C          63.8939   89.5107   15.6968 C.2     1  UNL1        0.2442
      6 O          63.5013   89.7298   17.1278 O.2     1  UNL1       -0.2731
      7 C          64.1437   87.9318   13.6487 C.3     1  UNL1        0.1149
      8 C          64.0008   86.5721   13.0316 C.3     1  UNL1        0.1123
      9 C          62.7440   83.9300   11.8518 C.ar    1  UNL1        0.0053
     10 C          62.6011   82.5703   11.2348 C.ar    1  UNL1       -0.0018
     11 C          63.0369   81.3524   11.9944 C.ar    1  UNL1       -0.0002
     12 C          63.6154   81.4943   13.3710 C.ar    1  UNL1        0.0012
     13 C          63.7583   82.8540   13.9880 C.ar    1  UNL1        0.0142
     14 C          63.3225   84.0718   13.2284 C.ar    1  UNL1        0.0451
     15 C          62.3082   85.1478   11.0922 C.3     1  UNL1        0.0780
     16 N          61.2071   86.0129   11.6298 N.3     1  UNL1       -0.2939
     17 H          60.3306   85.6232   11.2832 H       1  UNL1        0.1235
     18 C          61.1837   87.4793   11.3148 C.3     1  UNL1        0.0861
     19 C          59.8751   88.2080   11.2328 C.3     1  UNL1        0.0859
     20 C          59.3195   90.7229   11.5736 C.3     1  UNL1        0.0859
     21 N          59.6029   89.3660   12.1465 N.3     1  UNL1       -0.2952
     22 H          58.7938   89.1105   12.7126 H       1  UNL1        0.1233
     23 C          62.9736   85.5005    9.7950 C.3     1  UNL1        0.0203
     24 C          62.2033   85.4190    8.5105 C.3     1  UNL1        0.0017
     25 C          62.7921   84.7106    7.3265 C.3     1  UNL1        0.0001
     26 C          60.8443   86.0458    8.4098 C.3     1  UNL1        0.0001
     27 C          64.4293   90.6512   14.8829 C.3     1  UNL1        0.1564
     28 N          65.6864   91.3506   15.3077 N.am    1  UNL1       -0.2727
     29 C          67.0622   91.0978   14.7660 C.3     1  UNL1        0.0943
     30 C          68.0146   92.0166   15.4723 C.3     1  UNL1        0.0311
     31 C          67.2274   92.8372   16.4506 C.3     1  UNL1        0.0870
     32 C          65.7885   92.4256   16.3489 C.2     1  UNL1        0.2260
     33 O          64.6515   92.9900   17.1479 O.2     1  UNL1       -0.2749
     34 C          63.7076   91.0923   13.6440 C.3     1  UNL1        0.0564
     35 C          64.4451   91.8387   12.5721 C.ar    1  UNL1       -0.0094
     36 C          65.4829   92.8557   12.9447 C.ar    1  UNL1       -0.0025
     37 C          66.2204   93.6021   11.8728 C.ar    1  UNL1        0.0111
     38 C          65.9200   93.3315   10.4282 C.ar    1  UNL1        0.0585
     39 CL         66.6574   94.0779    9.3563 Cl      1  UNL1       -0.0822
     40 C          64.8822   92.3146   10.0557 C.ar    1  UNL1        0.0225
     41 C          64.1447   91.5682   11.1276 C.ar    1  UNL1        0.0546
     42 CL         63.1069   90.5513   10.7551 Cl      1  UNL1       -0.0825
@<TRIPOS>BOND
     1    20    21    1
     2    21    19    1
     3    19    18    1
     4    18    16    1
     5    16    15    1
     6    15    23    1
     7    23    24    1
     8    24    25    1
     9    24    26    1
    10    15     9    1
    11     9    10   ar
    12    10    11   ar
    13    11    12   ar
    14    12    13   ar
    15    13    14   ar
    16    14     1    1
    17     1     2    1
    18     2     3    1
    19     3     4    1
    20     4     5   am
    21     5     6    2
    22     5    27    1
    23    27    34    1
    24    34    35    1
    25    35    36   ar
    26    36    37   ar
    27    37    38   ar
    28    38    39    1
    29    38    40   ar
    30    40    41   ar
    31    41    42    1
    32    27    28    1
    33    28    29    1
    34    29    30    1
    35    30    31    1
    36    31    32    1
    37    32    33    2
    38     4     7    1
    39     7     8    1
    40    14     9   ar
    41     8     1    1
    42    41    35   ar
    43    32    28   am
    44    21    22    1
    45    16    17    1
@<TRIPOS>MOLECULE
*****
 42 45 0 0 0
SMALL
GASTEIGER

@<TRIPOS>ATOM
      1 N          63.4873   85.5026   14.3935 N.pl3   1  UNL1       -0.3043
      2 C          62.9160   85.9645   15.7012 C.3     1  UNL1        0.1123
      3 C          63.0541   87.3997   16.1149 C.3     1  UNL1        0.1149
      4 N          63.7635   88.3730   15.2207 N.am    1  UNL1       -0.2747
      5 C          63.9016   89.8082   15.6344 C.2     1  UNL1        0.2442
      6 O          63.3303   90.2701   16.9421 O.2     1  UNL1       -0.2731
      7 C          64.3348   87.9111   13.9130 C.3     1  UNL1        0.1149
      8 C          64.1967   86.4758   13.4993 C.3     1  UNL1        0.1123
      9 C          62.9396   83.7270   12.5776 C.ar    1  UNL1        0.0053
     10 C          62.8015   82.2918   12.1641 C.ar    1  UNL1       -0.0018
     11 C          63.0730   81.1969   13.1528 C.ar    1  UNL1       -0.0002
     12 C          63.4826   81.5372   14.5550 C.ar    1  UNL1        0.0012
     13 C          63.6207   82.9724   14.9685 C.ar    1  UNL1        0.0142
     14 C          63.3492   84.0673   13.9799 C.ar    1  UNL1        0.0451
     15 C          62.6680   84.8219   11.5889 C.3     1  UNL1        0.0780
     16 N          63.5498   84.9819   10.3861 N.3     1  UNL1       -0.2939
     17 H          63.6424   85.9840   10.2201 H       1  UNL1        0.1235
     18 C          63.1551   84.3612    9.0789 C.3     1  UNL1        0.0861
     19 C          63.0654   85.2074    7.8435 C.3     1  UNL1        0.0859
     20 C          61.1529   84.3463    6.3103 C.3     1  UNL1        0.0859
     21 N          62.6119   84.5995    6.5494 N.3     1  UNL1       -0.2952
     22 H          62.9287   85.2210    5.8052 H       1  UNL1        0.1233
     23 C          61.5147   85.7567   11.8031 C.3     1  UNL1        0.0203
     24 C          61.3087   86.9182   10.8765 C.3     1  UNL1        0.0017
     25 C          62.0063   88.2200   11.1392 C.3     1  UNL1        0.0001
     26 C          60.4053   86.7780    9.6874 C.3     1  UNL1        0.0001
     27 C          64.6110   90.7815   14.7402 C.3     1  UNL1        0.1564
     28 N          65.8899   91.4213   15.1931 N.am    1  UNL1       -0.2727
     29 C          67.2555   91.1555   14.6323 C.3     1  UNL1        0.0943
     30 C          68.2373   92.0091   15.3789 C.3     1  UNL1        0.0311
     31 C          67.4785   92.8025   16.4010 C.3     1  UNL1        0.0870
     32 C          66.0277   92.4392   16.2863 C.2     1  UNL1        0.2260
     33 O          64.9109   92.9959   17.1184 O.2     1  UNL1       -0.2749
     34 C          64.0414   91.1150   13.3932 C.3     1  UNL1        0.0564
     35 C          64.7392   92.1048   12.5081 C.ar    1  UNL1       -0.0094
     36 C          65.6459   93.1385   13.1078 C.ar    1  UNL1       -0.0025
     37 C          66.3436   94.1284   12.2228 C.ar    1  UNL1        0.0111
     38 C          66.1347   94.0845   10.7380 C.ar    1  UNL1        0.0585
     39 CL         66.8324   95.0744    9.8529 Cl      1  UNL1       -0.0822
     40 C          65.2280   93.0509   10.1383 C.ar    1  UNL1        0.0225
     41 C          64.5303   92.0611   11.0234 C.ar    1  UNL1        0.0546
     42 CL         63.6237   91.0275   10.4238 Cl      1  UNL1       -0.0825
@<TRIPOS>BOND
     1    20    21    1
     2    21    19    1
     3    19    18    1
     4    18    16    1
     5    16    15    1
     6    15    23    1
     7    23    24    1
     8    24    25    1
     9    24    26    1
    10    15     9    1
    11     9    10   ar
    12    10    11   ar
    13    11    12   ar
    14    12    13   ar
    15    13    14   ar
    16    14     1    1
    17     1     2    1
    18     2     3    1
    19     3     4    1
    20     4     5   am
    21     5     6    2
    22     5    27    1
    23    27    34    1
    24    34    35    1
    25    35    36   ar
    26    36    37   ar
    27    37    38   ar
    28    38    39    1
    29    38    40   ar
    30    40    41   ar
    31    41    42    1
    32    27    28    1
    33    28    29    1
    34    29    30    1
    35    30    31    1
    36    31    32    1
    37    32    33    2
    38     4     7    1
    39     7     8    1
    40    14     9   ar
    41     8     1    1
    42    41    35   ar
    43    32    28   am
    44    21    22    1
    45    16    17    1
@<TRIPOS>MOLECULE
*****
 42 45 0 0 0
SMALL
GASTEIGER

@<TRIPOS>ATOM
      1 N          63.3856   86.1622   14.6598 N.pl3   1  UNL1       -0.3043
      2 C          62.8389   86.7991   15.9030 C.3     1  UNL1        0.1123
      3 C          63.1150   88.2456   16.1883 C.3     1  UNL1        0.1149
      4 N          63.9378   89.0552   15.2303 N.am    1  UNL1       -0.2747
      5 C          64.2139   90.5017   15.5156 C.2     1  UNL1        0.2442
      6 O          63.6673   91.1386   16.7588 O.2     1  UNL1       -0.2731
      7 C          64.4845   88.4183   13.9871 C.3     1  UNL1        0.1149
      8 C          64.2083   86.9717   13.7019 C.3     1  UNL1        0.1123
      9 C          62.6282   84.2975   13.0168 C.ar    1  UNL1        0.0053
     10 C          62.3521   82.8510   12.7316 C.ar    1  UNL1       -0.0018
     11 C          62.5572   81.8226   13.8042 C.ar    1  UNL1       -0.0002
     12 C          63.0384   82.2408   15.1620 C.ar    1  UNL1        0.0012
     13 C          63.3145   83.6873   15.4472 C.ar    1  UNL1        0.0142
     14 C          63.1094   84.7156   14.3746 C.ar    1  UNL1        0.0451
     15 C          62.4232   85.3258   11.9442 C.3     1  UNL1        0.0780
     16 N          61.2016   86.1961   11.9633 N.3     1  UNL1       -0.2939
     17 H          60.4196   85.6125   11.6662 H       1  UNL1        0.1235
     18 C          61.1546   87.4411   11.1280 C.3     1  UNL1        0.0861
     19 C          60.0317   87.6499   10.1556 C.3     1  UNL1        0.0859
     20 C          59.1500   87.4825    7.7175 C.3     1  UNL1        0.0859
     21 N          60.0983   87.0339    8.7895 N.3     1  UNL1       -0.2952
     22 H          61.0410   87.2001    8.4372 H       1  UNL1        0.1233
     23 C          63.4396   85.4839   10.8526 C.3     1  UNL1        0.0203
     24 C          63.4462   84.5351    9.6908 C.3     1  UNL1        0.0017
     25 C          62.9545   84.9896    8.3485 C.3     1  UNL1        0.0001
     26 C          63.9445   83.1319    9.8712 C.3     1  UNL1        0.0001
     27 C          65.0367   91.3112   14.5577 C.3     1  UNL1        0.1564
     28 N          66.3348   91.9136   15.0073 N.am    1  UNL1       -0.2727
     29 C          66.5484   92.7170   16.2559 C.3     1  UNL1        0.0943
     30 C          67.9928   93.1183   16.3075 C.3     1  UNL1        0.0311
     31 C          68.6719   92.5629   15.0908 C.3     1  UNL1        0.0870
     32 C          67.6472   91.8184   14.2871 C.2     1  UNL1        0.2260
     33 O          67.8920   91.1041   12.9911 O.2     1  UNL1       -0.2749
     34 C          64.5614   91.5184   13.1501 C.3     1  UNL1        0.0564
     35 C          65.1420   92.6227   12.3174 C.ar    1  UNL1       -0.0094
     36 C          65.9205   93.7255   12.9716 C.ar    1  UNL1       -0.0025
     37 C          66.5011   94.8298   12.1389 C.ar    1  UNL1        0.0111
     38 C          66.3032   94.8313   10.6519 C.ar    1  UNL1        0.0585
     39 CL         66.8838   95.9356    9.8192 Cl      1  UNL1       -0.0822
     40 C          65.5248   93.7286    9.9978 C.ar    1  UNL1        0.0225
     41 C          64.9442   92.6243   10.8305 C.ar    1  UNL1        0.0546
     42 CL         64.1658   91.5215   10.1764 Cl      1  UNL1       -0.0825
@<TRIPOS>BOND
     1    20    21    1
     2    21    19    1
     3    19    18    1
     4    18    16    1
     5    16    15    1
     6    15    23    1
     7    23    24    1
     8    24    25    1
     9    24    26    1
    10    15     9    1
    11     9    10   ar
    12    10    11   ar
    13    11    12   ar
    14    12    13   ar
    15    13    14   ar
    16    14     1    1
    17     1     2    1
    18     2     3    1
    19     3     4    1
    20     4     5   am
    21     5     6    2
    22     5    27    1
    23    27    34    1
    24    34    35    1
    25    35    36   ar
    26    36    37   ar
    27    37    38   ar
    28    38    39    1
    29    38    40   ar
    30    40    41   ar
    31    41    42    1
    32    27    28    1
    33    28    29    1
    34    29    30    1
    35    30    31    1
    36    31    32    1
    37    32    33    2
    38     4     7    1
    39     7     8    1
    40    14     9   ar
    41     8     1    1
    42    41    35   ar
    43    32    28   am
    44    21    22    1
    45    16    17    1
@<TRIPOS>MOLECULE
*****
 42 45 0 0 0
SMALL
GASTEIGER

@<TRIPOS>ATOM
      1 N          63.9918   91.5556   11.4589 N.pl3   1  UNL1       -0.3043
      2 C          63.0165   91.2379   12.5534 C.3     1  UNL1        0.1123
      3 C          62.1439   90.0223   12.4508 C.3     1  UNL1        0.1149
      4 N          62.2465   89.1242   11.2537 N.am    1  UNL1       -0.2747
      5 C          61.3738   87.9085   11.1511 C.2     1  UNL1        0.2442
      6 O          60.3985   87.5908   12.2456 O.2     1  UNL1       -0.2731
      7 C          63.2218   89.4419   10.1592 C.3     1  UNL1        0.1149
      8 C          64.0944   90.6576   10.2618 C.3     1  UNL1        0.1123
      9 C          65.6503   93.0270   12.8133 C.ar    1  UNL1        0.0053
     10 C          66.5230   94.2427   12.9159 C.ar    1  UNL1       -0.0018
     11 C          66.6097   95.2028   11.7667 C.ar    1  UNL1       -0.0002
     12 C          65.8238   94.9472   10.5149 C.ar    1  UNL1        0.0012
     13 C          64.9512   93.7315   10.4123 C.ar    1  UNL1        0.0142
     14 C          64.8645   92.7714   11.5615 C.ar    1  UNL1        0.0451
     15 C          65.5636   92.0669   13.9625 C.3     1  UNL1        0.0780
     16 N          64.2748   91.9109   14.7139 N.3     1  UNL1       -0.2939
     17 H          63.9847   92.8465   14.9983 H       1  UNL1        0.1235
     18 C          64.2214   91.0493   15.9406 C.3     1  UNL1        0.0861
     19 C          63.4766   89.7475   15.9110 C.3     1  UNL1        0.0859
     20 C          62.9073   87.5727   17.2132 C.3     1  UNL1        0.0859
     21 N          63.1218   89.0571   17.1945 N.3     1  UNL1       -0.2952
     22 H          63.8756   89.2540   17.8529 H       1  UNL1        0.1233
     23 C          66.7657   91.2627   14.3604 C.3     1  UNL1        0.0203
     24 C          67.9399   91.9379   15.0049 C.3     1  UNL1        0.0017
     25 C          67.8185   92.4882   16.3950 C.3     1  UNL1        0.0001
     26 C          69.2355   92.0628   14.2593 C.3     1  UNL1        0.0001
     27 C          61.4765   87.0105    9.9540 C.3     1  UNL1        0.1564
     28 N          60.4758   87.1250    8.8425 N.am    1  UNL1       -0.2727
     29 C          60.0016   86.0053    7.9642 C.3     1  UNL1        0.0943
     30 C          59.0063   86.5676    6.9930 C.3     1  UNL1        0.0311
     31 C          58.8653   88.0348    7.2711 C.3     1  UNL1        0.0870
     32 C          59.7734   88.3794    8.4142 C.2     1  UNL1        0.2260
     33 O          59.9486   89.7393    9.0221 O.2     1  UNL1       -0.2749
     34 C          62.5799   85.9979    9.8684 C.3     1  UNL1        0.0564
     35 C          62.7731   85.0039   10.9750 C.ar    1  UNL1       -0.0094
     36 C          62.2882   85.3187   12.3591 C.ar    1  UNL1       -0.0025
     37 C          62.4813   84.3246   13.4657 C.ar    1  UNL1        0.0111
     38 C          63.1594   83.0157   13.1881 C.ar    1  UNL1        0.0585
     39 CL         63.3526   82.0216   14.2947 Cl      1  UNL1       -0.0822
     40 C          63.6443   82.7009   11.8040 C.ar    1  UNL1        0.0225
     41 C          63.4512   83.6950   10.6975 C.ar    1  UNL1        0.0546
     42 CL         63.9360   83.3802    9.3134 Cl      1  UNL1       -0.0825
@<TRIPOS>BOND
     1    20    21    1
     2    21    19    1
     3    19    18    1
     4    18    16    1
     5    16    15    1
     6    15    23    1
     7    23    24    1
     8    24    25    1
     9    24    26    1
    10    15     9    1
    11     9    10   ar
    12    10    11   ar
    13    11    12   ar
    14    12    13   ar
    15    13    14   ar
    16    14     1    1
    17     1     2    1
    18     2     3    1
    19     3     4    1
    20     4     5   am
    21     5     6    2
    22     5    27    1
    23    27    34    1
    24    34    35    1
    25    35    36   ar
    26    36    37   ar
    27    37    38   ar
    28    38    39    1
    29    38    40   ar
    30    40    41   ar
    31    41    42    1
    32    27    28    1
    33    28    29    1
    34    29    30    1
    35    30    31    1
    36    31    32    1
    37    32    33    2
    38     4     7    1
    39     7     8    1
    40    14     9   ar
    41     8     1    1
    42    41    35   ar
    43    32    28   am
    44    21    22    1
    45    16    17    1
@<TRIPOS>MOLECULE
*****
 42 45 0 0 0
SMALL
GASTEIGER

@<TRIPOS>ATOM
      1 N          63.7154   88.7984   14.5960 N.pl3   1  UNL1       -0.3043
      2 C          62.8433   88.9405   13.3839 C.3     1  UNL1        0.1123
      3 C          63.1612   89.9785   12.3488 C.3     1  UNL1        0.1149
      4 N          64.3511   90.8745   12.5258 N.am    1  UNL1       -0.2747
      5 C          64.6690   91.9125   11.4908 C.2     1  UNL1        0.2442
      6 O          63.7969   92.0547   10.2786 O.2     1  UNL1       -0.2731
      7 C          65.2232   90.7324   13.7380 C.3     1  UNL1        0.1149
      8 C          64.9054   89.6943   14.7731 C.3     1  UNL1        0.1123
      9 C          63.4408   86.3047   15.2715 C.ar    1  UNL1        0.0053
     10 C          63.1230   85.2667   16.3066 C.ar    1  UNL1       -0.0018
     11 C          62.7618   85.6843   17.7013 C.ar    1  UNL1       -0.0002
     12 C          62.7186   87.1398   18.0609 C.ar    1  UNL1        0.0012
     13 C          63.0365   88.1778   17.0259 C.ar    1  UNL1        0.0142
     14 C          63.3976   87.7603   15.6311 C.ar    1  UNL1        0.0451
     15 C          63.8019   85.8871   13.8768 C.3     1  UNL1        0.0780
     16 N          63.1305   86.5350   12.7024 N.3     1  UNL1       -0.2939
     17 H          62.6180   87.3397   13.0632 H       1  UNL1        0.1235
     18 C          62.1677   85.7499   11.8617 C.3     1  UNL1        0.0861
     19 C          61.2848   86.4556   10.8756 C.3     1  UNL1        0.0859
     20 C          60.1375   88.7744   10.6367 C.3     1  UNL1        0.0859
     21 N          60.2834   87.4649   11.3537 N.3     1  UNL1       -0.2952
     22 H          59.3707   87.0105   11.3254 H       1  UNL1        0.1233
     23 C          64.8345   84.8217   13.6565 C.3     1  UNL1        0.0203
     24 C          64.4195   83.4634   13.1740 C.3     1  UNL1        0.0017
     25 C          64.6396   83.0767   11.7415 C.3     1  UNL1        0.0001
     26 C          63.7845   82.4917   14.1241 C.3     1  UNL1        0.0001
     27 C          65.8589   92.8085   11.6678 C.3     1  UNL1        0.1564
     28 N          66.8805   92.9231   10.5755 N.am    1  UNL1       -0.2727
     29 C          67.9113   91.8927   10.2207 C.3     1  UNL1        0.0943
     30 C          68.7186   92.4210    9.0722 C.3     1  UNL1        0.0311
     31 C          68.1869   93.7779    8.7172 C.3     1  UNL1        0.0870
     32 C          67.0508   94.0883    9.6463 C.2     1  UNL1        0.2260
     33 O          66.2294   95.3433    9.6462 O.2     1  UNL1       -0.2749
     34 C          66.0272   93.5898   12.9372 C.3     1  UNL1        0.0564
     35 C          67.0162   93.1380   13.9704 C.ar    1  UNL1       -0.0094
     36 C          68.4411   92.8766   13.5810 C.ar    1  UNL1       -0.0025
     37 C          69.4301   92.4247   14.6143 C.ar    1  UNL1        0.0111
     38 C          68.9943   92.2342   16.0370 C.ar    1  UNL1        0.0585
     39 CL         69.9833   91.7824   17.0702 Cl      1  UNL1       -0.0822
     40 C          67.5695   92.4956   16.4263 C.ar    1  UNL1        0.0225
     41 C          66.5805   92.9475   15.3930 C.ar    1  UNL1        0.0546
     42 CL         65.1557   93.2088   15.7824 Cl      1  UNL1       -0.0825
@<TRIPOS>BOND
     1    20    21    1
     2    21    19    1
     3    19    18    1
     4    18    16    1
     5    16    15    1
     6    15    23    1
     7    23    24    1
     8    24    25    1
     9    24    26    1
    10    15     9    1
    11     9    10   ar
    12    10    11   ar
    13    11    12   ar
    14    12    13   ar
    15    13    14   ar
    16    14     1    1
    17     1     2    1
    18     2     3    1
    19     3     4    1
    20     4     5   am
    21     5     6    2
    22     5    27    1
    23    27    34    1
    24    34    35    1
    25    35    36   ar
    26    36    37   ar
    27    37    38   ar
    28    38    39    1
    29    38    40   ar
    30    40    41   ar
    31    41    42    1
    32    27    28    1
    33    28    29    1
    34    29    30    1
    35    30    31    1
    36    31    32    1
    37    32    33    2
    38     4     7    1
    39     7     8    1
    40    14     9   ar
    41     8     1    1
    42    41    35   ar
    43    32    28   am
    44    21    22    1
    45    16    17    1
