@<TRIPOS>MOLECULE
*****
 22 24 0 0 0
SMALL
GASTEIGER

@<TRIPOS>ATOM
      1 C          62.4506   83.5996   14.3191 C.2     1  UNL1       -0.0420
      2 C          62.8814   83.8768   12.9093 C.2     1  UNL1       -0.0239
      3 C          62.9214   82.5713   12.1716 C.ar    1  UNL1       -0.0077
      4 C          63.2752   82.2297   10.7545 C.ar    1  UNL1        0.0017
      5 C          63.2228   80.8040   10.2913 C.ar    1  UNL1        0.0296
      6 C          62.8166   79.7199   11.2452 C.ar    1  UNL1        0.1398
      7 F          62.7642   78.2942   10.7819 F       1  UNL1       -0.2042
      8 C          62.4628   80.0616   12.6622 C.ar    1  UNL1        0.0257
      9 C          62.5152   81.4873   13.1254 C.ar    1  UNL1       -0.0162
     10 C          62.2242   82.1228   14.4526 C.3     1  UNL1        0.0481
     11 C          62.2766   84.6200   15.4047 C.3     1  UNL1        0.0394
     12 C          63.4770   85.2950   15.9989 C.3     1  UNL1        0.0765
     13 C          64.3159   87.4765   14.8643 C.3     1  UNL1        0.0897
     14 N          63.5827   86.7911   15.9791 N.3     1  UNL1       -0.2700
     15 C          62.9552   87.6019   17.0740 C.3     1  UNL1        0.0897
     16 C          63.2140   85.2231   12.3376 C.3     1  UNL1        0.0733
     17 C          62.3269   85.8346   11.2938 C.ar    1  UNL1        0.0849
     18 C          62.5385   85.5084    9.8450 C.ar    1  UNL1        0.0185
     19 C          61.6516   86.1198    8.8013 C.ar    1  UNL1        0.0238
     20 C          60.5531   87.0574    9.2063 C.ar    1  UNL1        0.1222
     21 N          60.3415   87.3836   10.6550 N.ar    1  UNL1       -0.1467
     22 N          61.2284   86.7722   11.6988 N.ar    1  UNL1       -0.1520
@<TRIPOS>BOND
     1    13    14    1
     2    14    15    1
     3    14    12    1
     4    12    11    1
     5    11     1    1
     6     1     2    2
     7     2    16    1
     8    16    17    1
     9    17    18   ar
    10    18    19   ar
    11    19    20   ar
    12    20    21   ar
    13    21    22   ar
    14     2     3    1
    15     3     4   ar
    16     4     5   ar
    17     5     6   ar
    18     6     7    1
    19     6     8   ar
    20     8     9   ar
    21     9    10    1
    22    10     1    1
    23    22    17   ar
    24     9     3   ar
@<TRIPOS>MOLECULE
*****
 22 24 0 0 0
SMALL
GASTEIGER

@<TRIPOS>ATOM
      1 C          64.6670   91.6531   12.2743 C.2     1  UNL1       -0.0420
      2 C          63.6837   90.8933   13.1144 C.2     1  UNL1       -0.0239
      3 C          62.5907   90.3976   12.2146 C.ar    1  UNL1       -0.0077
      4 C          61.3550   89.5920   12.4862 C.ar    1  UNL1        0.0017
      5 C          60.4271   89.2398   11.3616 C.ar    1  UNL1        0.0296
      6 C          60.7349   89.6932    9.9653 C.ar    1  UNL1        0.1398
      7 F          59.8069   89.3409    8.8406 F       1  UNL1       -0.2042
      8 C          61.9706   90.4988    9.6936 C.ar    1  UNL1        0.0257
      9 C          62.8986   90.8510   10.8183 C.ar    1  UNL1       -0.0162
     10 C          64.1818   91.6269   10.8552 C.3     1  UNL1        0.0481
     11 C          65.9163   92.3216   12.7667 C.3     1  UNL1        0.0394
     12 C          66.2325   93.7254   12.3434 C.3     1  UNL1        0.0765
     13 C          66.8422   95.3645   10.4220 C.3     1  UNL1        0.0897
     14 N          66.8579   93.9822   11.0044 N.3     1  UNL1       -0.2700
     15 C          67.4990   92.8568   10.2479 C.3     1  UNL1        0.0897
     16 C          63.7770   90.6687   14.5945 C.3     1  UNL1        0.0733
     17 C          63.7203   89.2750   15.1467 C.ar    1  UNL1        0.0849
     18 C          64.4245   88.1575   14.4360 C.ar    1  UNL1        0.0185
     19 C          64.3678   86.7640   14.9880 C.ar    1  UNL1        0.0238
     20 C          63.6068   86.4880   16.2509 C.ar    1  UNL1        0.1222
     21 N          62.9026   87.6056   16.9616 N.ar    1  UNL1       -0.1467
     22 N          62.9593   88.9991   16.4096 N.ar    1  UNL1       -0.1520
@<TRIPOS>BOND
     1    13    14    1
     2    14    15    1
     3    14    12    1
     4    12    11    1
     5    11     1    1
     6     1     2    2
     7     2    16    1
     8    16    17    1
     9    17    18   ar
    10    18    19   ar
    11    19    20   ar
    12    20    21   ar
    13    21    22   ar
    14     2     3    1
    15     3     4   ar
    16     4     5   ar
    17     5     6   ar
    18     6     7    1
    19     6     8   ar
    20     8     9   ar
    21     9    10    1
    22    10     1    1
    23    22    17   ar
    24     9     3   ar
@<TRIPOS>MOLECULE
*****
 22 24 0 0 0
SMALL
GASTEIGER

@<TRIPOS>ATOM
      1 C          63.3104   90.3922   11.4599 C.2     1  UNL1       -0.0420
      2 C          63.3245   89.0940   12.2112 C.2     1  UNL1       -0.0239
      3 C          62.5311   88.0939   11.4236 C.ar    1  UNL1       -0.0077
      4 C          62.2028   86.6519   11.6738 C.ar    1  UNL1        0.0017
      5 C          61.3701   85.8900   10.6858 C.ar    1  UNL1        0.0296
      6 C          60.8657   86.5701    9.4477 C.ar    1  UNL1        0.1398
      7 F          60.0330   85.8081    8.4597 F       1  UNL1       -0.2042
      8 C          61.1940   88.0122    9.1975 C.ar    1  UNL1        0.0257
      9 C          62.0267   88.7741   10.1854 C.ar    1  UNL1       -0.0162
     10 C          62.5084   90.1945   10.2079 C.3     1  UNL1        0.0481
     11 C          63.9808   91.6647   11.8859 C.3     1  UNL1        0.0394
     12 C          64.7518   92.4767   10.8878 C.3     1  UNL1        0.0765
     13 C          66.2864   93.9989   12.3294 C.3     1  UNL1        0.0897
     14 N          66.1187   92.9887   11.2332 N.3     1  UNL1       -0.2700
     15 C          67.3180   92.4906   10.4825 C.3     1  UNL1        0.0897
     16 C          64.0113   88.8403   13.5204 C.3     1  UNL1        0.0733
     17 C          64.2510   89.9736   14.4736 C.ar    1  UNL1        0.0849
     18 C          65.5498   90.7231   14.4362 C.ar    1  UNL1        0.0185
     19 C          65.7895   91.8563   15.3893 C.ar    1  UNL1        0.0238
     20 C          64.7304   92.2399   16.3798 C.ar    1  UNL1        0.1222
     21 N          63.4317   91.4904   16.4172 N.ar    1  UNL1       -0.1467
     22 N          63.1919   90.3572   15.4641 N.ar    1  UNL1       -0.1520
@<TRIPOS>BOND
     1    13    14    1
     2    14    15    1
     3    14    12    1
     4    12    11    1
     5    11     1    1
     6     1     2    2
     7     2    16    1
     8    16    17    1
     9    17    18   ar
    10    18    19   ar
    11    19    20   ar
    12    20    21   ar
    13    21    22   ar
    14     2     3    1
    15     3     4   ar
    16     4     5   ar
    17     5     6   ar
    18     6     7    1
    19     6     8   ar
    20     8     9   ar
    21     9    10    1
    22    10     1    1
    23    22    17   ar
    24     9     3   ar
@<TRIPOS>MOLECULE
*****
 22 24 0 0 0
SMALL
GASTEIGER

@<TRIPOS>ATOM
      1 C          60.5018   87.5612   10.4420 C.2     1  UNL1       -0.0420
      2 C          61.8200   86.8462   10.4719 C.2     1  UNL1       -0.0239
      3 C          61.9555   86.0698    9.1956 C.ar    1  UNL1       -0.0077
      4 C          63.0434   85.1792    8.6732 C.ar    1  UNL1        0.0017
      5 C          62.8968   84.5237    7.3320 C.ar    1  UNL1        0.0296
      6 C          61.6622   84.7590    6.5132 C.ar    1  UNL1        0.1398
      7 F          61.5156   84.1035    5.1720 F       1  UNL1       -0.2042
      8 C          60.5742   85.6496    7.0356 C.ar    1  UNL1        0.0257
      9 C          60.7209   86.3051    8.3768 C.ar    1  UNL1       -0.0162
     10 C          59.8225   87.2268    9.1471 C.3     1  UNL1        0.0481
     11 C          59.9582   88.4538   11.5180 C.3     1  UNL1        0.0394
     12 C          60.3681   89.8956   11.5744 C.3     1  UNL1        0.0765
     13 C          62.6057   90.1573   12.8686 C.3     1  UNL1        0.0897
     14 N          61.8227   90.2616   11.5934 N.3     1  UNL1       -0.2700
     15 C          62.4942   90.7320   10.3373 C.3     1  UNL1        0.0897
     16 C          62.8263   86.8983   11.5832 C.3     1  UNL1        0.0733
     17 C          62.9962   85.7209   12.4970 C.ar    1  UNL1        0.0849
     18 C          62.5761   84.3537   12.0448 C.ar    1  UNL1        0.0185
     19 C          62.7459   83.1764   12.9585 C.ar    1  UNL1        0.0238
     20 C          63.3359   83.3662   14.3245 C.ar    1  UNL1        0.1222
     21 N          63.7560   84.7333   14.7767 N.ar    1  UNL1       -0.1467
     22 N          63.5861   85.9107   13.8630 N.ar    1  UNL1       -0.1520
@<TRIPOS>BOND
     1    13    14    1
     2    14    15    1
     3    14    12    1
     4    12    11    1
     5    11     1    1
     6     1     2    2
     7     2    16    1
     8    16    17    1
     9    17    18   ar
    10    18    19   ar
    11    19    20   ar
    12    20    21   ar
    13    21    22   ar
    14     2     3    1
    15     3     4   ar
    16     4     5   ar
    17     5     6   ar
    18     6     7    1
    19     6     8   ar
    20     8     9   ar
    21     9    10    1
    22    10     1    1
    23    22    17   ar
    24     9     3   ar
@<TRIPOS>MOLECULE
*****
 22 24 0 0 0
SMALL
GASTEIGER

@<TRIPOS>ATOM
      1 C          63.2502   88.1510   12.5889 C.2     1  UNL1       -0.0420
      2 C          62.4973   89.1932   11.8162 C.2     1  UNL1       -0.0239
      3 C          61.7662   88.5056   10.7014 C.ar    1  UNL1       -0.0077
      4 C          60.8652   89.0258    9.6209 C.ar    1  UNL1        0.0017
      5 C          60.2652   88.0790    8.6242 C.ar    1  UNL1        0.0296
      6 C          60.5662   86.6119    8.7080 C.ar    1  UNL1        0.1398
      7 F          59.9662   85.6650    7.7113 F       1  UNL1       -0.2042
      8 C          61.4672   86.0916    9.7886 C.ar    1  UNL1        0.0257
      9 C          62.0671   87.0385   10.7853 C.ar    1  UNL1       -0.0162
     10 C          62.9843   86.8194   11.9518 C.3     1  UNL1        0.0481
     11 C          64.1168   88.3973   13.7882 C.3     1  UNL1        0.0394
     12 C          64.1570   87.3947   14.9031 C.3     1  UNL1        0.0765
     13 C          63.0448   86.5378   17.0892 C.3     1  UNL1        0.0897
     14 N          63.4336   87.6718   16.1876 N.3     1  UNL1       -0.2700
     15 C          63.0988   89.0830   16.5704 C.3     1  UNL1        0.0897
     16 C          62.4789   90.6646   12.1070 C.3     1  UNL1        0.0733
     17 C          63.7577   91.4485   12.0903 C.ar    1  UNL1        0.0849
     18 C          64.4159   91.7820   10.7844 C.ar    1  UNL1        0.0185
     19 C          65.6946   92.5660   10.7676 C.ar    1  UNL1        0.0238
     20 C          66.3151   93.0164   12.0568 C.ar    1  UNL1        0.1222
     21 N          65.6569   92.6829   13.3627 N.ar    1  UNL1       -0.1467
     22 N          64.3782   91.8990   13.3795 N.ar    1  UNL1       -0.1520
@<TRIPOS>BOND
     1    13    14    1
     2    14    15    1
     3    14    12    1
     4    12    11    1
     5    11     1    1
     6     1     2    2
     7     2    16    1
     8    16    17    1
     9    17    18   ar
    10    18    19   ar
    11    19    20   ar
    12    20    21   ar
    13    21    22   ar
    14     2     3    1
    15     3     4   ar
    16     4     5   ar
    17     5     6   ar
    18     6     7    1
    19     6     8   ar
    20     8     9   ar
    21     9    10    1
    22    10     1    1
    23    22    17   ar
    24     9     3   ar
@<TRIPOS>MOLECULE
*****
 22 24 0 0 0
SMALL
GASTEIGER

@<TRIPOS>ATOM
      1 C          63.5068   90.4259   12.2314 C.2     1  UNL1       -0.0420
      2 C          63.6935   89.0593   12.8209 C.2     1  UNL1       -0.0239
      3 C          62.9190   88.0840   11.9849 C.ar    1  UNL1       -0.0077
      4 C          62.7337   86.5991   12.0881 C.ar    1  UNL1        0.0017
      5 C          61.8830   85.8780   11.0850 C.ar    1  UNL1        0.0296
      6 C          61.2176   86.6418    9.9787 C.ar    1  UNL1        0.1398
      7 F          60.3668   85.9207    8.9756 F       1  UNL1       -0.2042
      8 C          61.4029   88.1267    9.8755 C.ar    1  UNL1        0.0257
      9 C          62.2536   88.8478   10.8787 C.ar    1  UNL1       -0.0162
     10 C          62.6169   90.2952   11.0310 C.3     1  UNL1        0.0481
     11 C          64.1050   91.6996   12.7510 C.3     1  UNL1        0.0394
     12 C          65.5590   91.9916   12.5264 C.3     1  UNL1        0.0765
     13 C          66.6100   93.7468   14.1279 C.3     1  UNL1        0.0897
     14 N          66.0932   93.3718   12.7705 N.3     1  UNL1       -0.2700
     15 C          66.1106   94.3770   11.6574 C.3     1  UNL1        0.0897
     16 C          64.5112   88.7265   14.0336 C.3     1  UNL1        0.0733
     17 C          63.9311   87.8650   15.1160 C.ar    1  UNL1        0.0849
     18 C          64.2952   86.4120   15.1941 C.ar    1  UNL1        0.0185
     19 C          63.7152   85.5505   16.2764 C.ar    1  UNL1        0.0238
     20 C          62.7710   86.1422   17.2807 C.ar    1  UNL1        0.1222
     21 N          62.4070   87.5952   17.2026 N.ar    1  UNL1       -0.1467
     22 N          62.9870   88.4567   16.1203 N.ar    1  UNL1       -0.1520
@<TRIPOS>BOND
     1    13    14    1
     2    14    15    1
     3    14    12    1
     4    12    11    1
     5    11     1    1
     6     1     2    2
     7     2    16    1
     8    16    17    1
     9    17    18   ar
    10    18    19   ar
    11    19    20   ar
    12    20    21   ar
    13    21    22   ar
    14     2     3    1
    15     3     4   ar
    16     4     5   ar
    17     5     6   ar
    18     6     7    1
    19     6     8   ar
    20     8     9   ar
    21     9    10    1
    22    10     1    1
    23    22    17   ar
    24     9     3   ar
@<TRIPOS>MOLECULE
*****
 22 24 0 0 0
SMALL
GASTEIGER

@<TRIPOS>ATOM
      1 C          63.3831   83.9483   12.5495 C.2     1  UNL1       -0.0420
      2 C          63.6781   85.3565   12.9736 C.2     1  UNL1       -0.0239
      3 C          62.9692   86.2828   12.0305 C.ar    1  UNL1       -0.0077
      4 C          62.8965   87.7793   11.9586 C.ar    1  UNL1        0.0017
      5 C          62.0907   88.4400   10.8798 C.ar    1  UNL1        0.0296
      6 C          61.3575   87.6043    9.8728 C.ar    1  UNL1        0.1398
      7 F          60.5517   88.2651    8.7939 F       1  UNL1       -0.2042
      8 C          61.4302   86.1078    9.9447 C.ar    1  UNL1        0.0257
      9 C          62.2360   85.4471   11.0236 C.ar    1  UNL1       -0.0162
     10 C          62.4918   84.0043   11.3443 C.3     1  UNL1        0.0481
     11 C          63.8903   82.7028   13.2139 C.3     1  UNL1        0.0394
     12 C          63.0107   81.9502   14.1678 C.3     1  UNL1        0.0765
     13 C          60.6594   80.8453   14.1384 C.3     1  UNL1        0.0897
     14 N          62.0782   80.8937   13.6537 N.3     1  UNL1       -0.2700
     15 C          62.5643   79.8857   12.6550 C.3     1  UNL1        0.0897
     16 C          64.5321   85.7665   14.1366 C.3     1  UNL1        0.0733
     17 C          63.9080   86.4300   15.3284 C.ar    1  UNL1        0.0849
     18 C          63.3931   85.5984   16.4657 C.ar    1  UNL1        0.0185
     19 C          62.7690   86.2618   17.6574 C.ar    1  UNL1        0.0238
     20 C          62.6597   87.7568   17.7119 C.ar    1  UNL1        0.1222
     21 N          63.1746   88.5884   16.5747 N.ar    1  UNL1       -0.1467
     22 N          63.7987   87.9250   15.3829 N.ar    1  UNL1       -0.1520
@<TRIPOS>BOND
     1    13    14    1
     2    14    15    1
     3    14    12    1
     4    12    11    1
     5    11     1    1
     6     1     2    2
     7     2    16    1
     8    16    17    1
     9    17    18   ar
    10    18    19   ar
    11    19    20   ar
    12    20    21   ar
    13    21    22   ar
    14     2     3    1
    15     3     4   ar
    16     4     5   ar
    17     5     6   ar
    18     6     7    1
    19     6     8   ar
    20     8     9   ar
    21     9    10    1
    22    10     1    1
    23    22    17   ar
    24     9     3   ar
@<TRIPOS>MOLECULE
*****
 22 24 0 0 0
SMALL
GASTEIGER

@<TRIPOS>ATOM
      1 C          62.8779   85.7150   12.0863 C.2     1  UNL1       -0.0420
      2 C          63.7173   85.1216   13.1786 C.2     1  UNL1       -0.0239
      3 C          63.5652   83.6304   13.1219 C.ar    1  UNL1       -0.0077
      4 C          64.1560   82.5289   13.9512 C.ar    1  UNL1        0.0017
      5 C          63.8134   81.0994   13.6530 C.ar    1  UNL1        0.0296
      6 C          62.8800   80.7712   12.5256 C.ar    1  UNL1        0.1398
      7 F          62.5374   79.3416   12.2275 F       1  UNL1       -0.2042
      8 C          62.2892   81.8727   11.6963 C.ar    1  UNL1        0.0257
      9 C          62.6318   83.3022   11.9945 C.ar    1  UNL1       -0.0162
     10 C          62.2070   84.5906   11.3545 C.3     1  UNL1        0.0481
     11 C          62.7346   87.1763   11.7796 C.3     1  UNL1        0.0394
     12 C          62.1688   87.6140   10.4612 C.3     1  UNL1        0.0765
     13 C          59.9683   87.2329    9.1335 C.3     1  UNL1        0.0897
     14 N          60.6906   87.8191   10.3103 N.3     1  UNL1       -0.2700
     15 C          59.9346   88.6102   11.3362 C.3     1  UNL1        0.0897
     16 C          64.5608   85.8852   14.1561 C.3     1  UNL1        0.0733
     17 C          63.9252   86.5285   15.3529 C.ar    1  UNL1        0.0849
     18 C          63.4411   85.6807   16.4917 C.ar    1  UNL1        0.0185
     19 C          62.8055   86.3239   17.6884 C.ar    1  UNL1        0.0238
     20 C          62.6540   87.8151   17.7464 C.ar    1  UNL1        0.1222
     21 N          63.1381   88.6630   16.6076 N.ar    1  UNL1       -0.1467
     22 N          63.7737   88.0198   15.4109 N.ar    1  UNL1       -0.1520
@<TRIPOS>BOND
     1    13    14    1
     2    14    15    1
     3    14    12    1
     4    12    11    1
     5    11     1    1
     6     1     2    2
     7     2    16    1
     8    16    17    1
     9    17    18   ar
    10    18    19   ar
    11    19    20   ar
    12    20    21   ar
    13    21    22   ar
    14     2     3    1
    15     3     4   ar
    16     4     5   ar
    17     5     6   ar
    18     6     7    1
    19     6     8   ar
    20     8     9   ar
    21     9    10    1
    22    10     1    1
    23    22    17   ar
    24     9     3   ar
@<TRIPOS>MOLECULE
*****
 22 24 0 0 0
SMALL
GASTEIGER

@<TRIPOS>ATOM
      1 C          63.8445   90.6981   13.0771 C.2     1  UNL1       -0.0420
      2 C          64.0253   90.6474   14.5653 C.2     1  UNL1       -0.0239
      3 C          65.1682   91.5500   14.9246 C.ar    1  UNL1       -0.0077
      4 C          65.7981   91.8963   16.2410 C.ar    1  UNL1        0.0017
      5 C          66.9538   92.8513   16.2913 C.ar    1  UNL1        0.0296
      6 C          67.4794   93.4598   15.0251 C.ar    1  UNL1        0.1398
      7 F          68.6351   94.4148   15.0754 F       1  UNL1       -0.2042
      8 C          66.8495   93.1135   13.7086 C.ar    1  UNL1        0.0257
      9 C          65.6939   92.1586   13.6583 C.ar    1  UNL1       -0.0162
     10 C          64.8758   91.6321   12.5166 C.3     1  UNL1        0.0481
     11 C          62.8136   89.9468   12.2880 C.3     1  UNL1        0.0394
     12 C          62.2361   90.5503   11.0422 C.3     1  UNL1        0.0765
     13 C          59.6640   90.5054   11.4057 C.3     1  UNL1        0.0897
     14 N          60.8658   90.1510   10.5809 N.3     1  UNL1       -0.2700
     15 C          60.6972   89.3975    9.2950 C.3     1  UNL1        0.0897
     16 C          63.2068   89.8364   15.5257 C.3     1  UNL1        0.0733
     17 C          63.4543   88.3634   15.6643 C.ar    1  UNL1        0.0849
     18 C          64.4055   87.6718   14.7331 C.ar    1  UNL1        0.0185
     19 C          64.6530   86.1989   14.8716 C.ar    1  UNL1        0.0238
     20 C          63.9493   85.4175   15.9413 C.ar    1  UNL1        0.1222
     21 N          62.9981   86.1091   16.8724 N.ar    1  UNL1       -0.1467
     22 N          62.7506   87.5820   16.7340 N.ar    1  UNL1       -0.1520
@<TRIPOS>BOND
     1    13    14    1
     2    14    15    1
     3    14    12    1
     4    12    11    1
     5    11     1    1
     6     1     2    2
     7     2    16    1
     8    16    17    1
     9    17    18   ar
    10    18    19   ar
    11    19    20   ar
    12    20    21   ar
    13    21    22   ar
    14     2     3    1
    15     3     4   ar
    16     4     5   ar
    17     5     6   ar
    18     6     7    1
    19     6     8   ar
    20     8     9   ar
    21     9    10    1
    22    10     1    1
    23    22    17   ar
    24     9     3   ar
