@<TRIPOS>MOLECULE
*****
 27 30 0 0 0
SMALL
GASTEIGER

@<TRIPOS>ATOM
      1 C          65.0432   91.1444   13.7365 C.ar    1  UNL1        0.0070
      2 C          64.7062   89.7698   14.2333 C.ar    1  UNL1       -0.0017
      3 C          63.8084   88.8798   13.4260 C.ar    1  UNL1       -0.0002
      4 C          63.2476   89.3644   12.1219 C.ar    1  UNL1       -0.0000
      5 C          62.3498   88.4743   11.3145 C.ar    1  UNL1        0.0005
      6 C          61.7890   88.9589   10.0105 C.ar    1  UNL1        0.0060
      7 C          62.1260   90.3336    9.5137 C.ar    1  UNL1        0.0005
      8 C          63.0238   91.2236   10.3210 C.ar    1  UNL1        0.0000
      9 C          63.5846   90.7390   11.6251 C.ar    1  UNL1       -0.0002
     10 C          64.4824   91.6290   12.4324 C.ar    1  UNL1       -0.0017
     11 C          60.8912   88.0689    9.2031 C.ar    1  UNL1        0.0295
     12 C          61.0033   86.5778    9.0841 C.ar    1  UNL1        0.0070
     13 C          59.9050   86.1011    8.1805 C.ar    1  UNL1        0.0075
     14 C          59.1141   87.2976    7.7411 C.ar    1  UNL1        0.0354
     15 S          59.7236   88.5137    8.3731 S.2     1  UNL1       -0.0864
     16 C          65.9411   92.0345   14.5438 C.3     1  UNL1        0.1426
     17 O          64.9314   92.0469   15.6531 O.3     1  UNL1       -0.3770
     18 H          64.8260   92.9525   15.9842 H       1  UNL1        0.2112
     19 C          66.9507   92.0220   13.4346 C.ar    1  UNL1        0.1019
     20 C          66.7654   92.6099   12.0671 C.ar    1  UNL1        0.1404
     21 N          68.0231   92.3708   11.2853 N.ar    1  UNL1       -0.1276
     22 N          68.9858   91.6351   12.1698 N.ar    1  UNL1       -0.0674
     23 N          68.3230   91.4196   13.4981 N.ar    1  UNL1       -0.2579
     24 H          68.7191   90.9629   14.2751 H       1  UNL1        0.1904
     25 C          67.4002   92.4397   16.6549 C.3     1  UNL1        0.0031
     26 C          66.8389   92.9245   15.3511 C.3     1  UNL1        0.0340
     27 C          67.1755   94.2994   14.8545 C.3     1  UNL1        0.0031
@<TRIPOS>BOND
     1    25    26    1
     2    26    27    1
     3    26    16    1
     4    16    17    1
     5    16     1    1
     6     1     2   ar
     7     2     3   ar
     8     3     4   ar
     9     4     5   ar
    10     5     6   ar
    11     6    11    1
    12    11    12   ar
    13    12    13   ar
    14    13    14   ar
    15    14    15   ar
    16     6     7   ar
    17     7     8   ar
    18     8     9   ar
    19     9    10   ar
    20    16    19    1
    21    19    20   ar
    22    20    21   ar
    23    21    22   ar
    24    22    23   ar
    25    10     1   ar
    26    23    19   ar
    27     9     4   ar
    28    15    11   ar
    29    17    18    1
    30    23    24    1
@<TRIPOS>MOLECULE
*****
 27 30 0 0 0
SMALL
GASTEIGER

@<TRIPOS>ATOM
      1 C          61.8854   89.3051   10.5119 C.ar    1  UNL1        0.0070
      2 C          61.9759   88.6261   11.8463 C.ar    1  UNL1       -0.0017
      3 C          62.9626   89.1085   12.8678 C.ar    1  UNL1       -0.0002
      4 C          63.8589   90.2699   12.5549 C.ar    1  UNL1       -0.0000
      5 C          64.8457   90.7522   13.5766 C.ar    1  UNL1        0.0005
      6 C          65.7420   91.9136   13.2637 C.ar    1  UNL1        0.0060
      7 C          65.6515   92.5926   11.9291 C.ar    1  UNL1        0.0005
      8 C          64.6648   92.1102   10.9076 C.ar    1  UNL1        0.0000
      9 C          63.7685   90.9488   11.2205 C.ar    1  UNL1       -0.0002
     10 C          62.7817   90.4664   10.1990 C.ar    1  UNL1       -0.0017
     11 C          66.7288   92.3960   14.2852 C.ar    1  UNL1        0.0295
     12 C          67.5655   91.5306   15.1803 C.ar    1  UNL1        0.0070
     13 C          68.4059   92.4282   16.0393 C.ar    1  UNL1        0.0075
     14 C          68.0886   93.8484   15.6751 C.ar    1  UNL1        0.0354
     15 S          67.0521   93.8284   14.5910 S.2     1  UNL1       -0.0864
     16 C          60.8986   88.8227    9.4903 C.3     1  UNL1        0.1426
     17 O          60.3829   90.2218    9.3277 O.3     1  UNL1       -0.3770
     18 H          59.4131   90.2092    9.3124 H       1  UNL1        0.2112
     19 C          61.4144   87.4236    9.6528 C.ar    1  UNL1        0.1019
     20 C          62.4318   86.7519    8.7788 C.ar    1  UNL1        0.1404
     21 N          62.6495   85.3636    9.3037 N.ar    1  UNL1       -0.1276
     22 N          61.7667   85.1774   10.5021 N.ar    1  UNL1       -0.0674
     23 N          61.0034   86.4505   10.7178 N.ar    1  UNL1       -0.2579
     24 H          60.3477   86.6180   11.4328 H       1  UNL1        0.1904
     25 C          59.6891   89.1271    7.2112 C.3     1  UNL1        0.0031
     26 C          59.9119   88.3403    8.4687 C.3     1  UNL1        0.0340
     27 C          59.1480   87.0711    8.7046 C.3     1  UNL1        0.0031
@<TRIPOS>BOND
     1    25    26    1
     2    26    27    1
     3    26    16    1
     4    16    17    1
     5    16     1    1
     6     1     2   ar
     7     2     3   ar
     8     3     4   ar
     9     4     5   ar
    10     5     6   ar
    11     6    11    1
    12    11    12   ar
    13    12    13   ar
    14    13    14   ar
    15    14    15   ar
    16     6     7   ar
    17     7     8   ar
    18     8     9   ar
    19     9    10   ar
    20    16    19    1
    21    19    20   ar
    22    20    21   ar
    23    21    22   ar
    24    22    23   ar
    25    10     1   ar
    26    23    19   ar
    27     9     4   ar
    28    15    11   ar
    29    17    18    1
    30    23    24    1
@<TRIPOS>MOLECULE
*****
 27 30 0 0 0
SMALL
GASTEIGER

@<TRIPOS>ATOM
      1 C          61.9096   89.5974   10.2017 C.ar    1  UNL1        0.0070
      2 C          62.5372   90.8313    9.6241 C.ar    1  UNL1       -0.0017
      3 C          63.5984   91.5625   10.3916 C.ar    1  UNL1       -0.0002
      4 C          64.0320   91.0599   11.7368 C.ar    1  UNL1       -0.0000
      5 C          65.0932   91.7912   12.5043 C.ar    1  UNL1        0.0005
      6 C          65.5268   91.2885   13.8495 C.ar    1  UNL1        0.0060
      7 C          64.8991   90.0546   14.4271 C.ar    1  UNL1        0.0005
      8 C          63.8379   89.3234   13.6595 C.ar    1  UNL1        0.0000
      9 C          63.4043   89.8260   12.3144 C.ar    1  UNL1       -0.0002
     10 C          62.3432   89.0948   11.5468 C.ar    1  UNL1       -0.0017
     11 C          66.5879   92.0197   14.6170 C.ar    1  UNL1        0.0295
     12 C          67.6688   91.3905   15.4452 C.ar    1  UNL1        0.0070
     13 C          68.5035   92.4904   16.0312 C.ar    1  UNL1        0.0075
     14 C          67.9385   93.7995   15.5652 C.ar    1  UNL1        0.0354
     15 S          66.7546   93.5086   14.6912 S.2     1  UNL1       -0.0864
     16 C          60.8484   88.8662    9.4341 C.3     1  UNL1        0.1426
     17 O          60.2622   90.1758    8.9968 O.3     1  UNL1       -0.3770
     18 H          59.2969   90.1440    9.0866 H       1  UNL1        0.2112
     19 C          61.4345   87.5566    9.8715 C.ar    1  UNL1        0.1019
     20 C          62.3666   86.6964    9.0706 C.ar    1  UNL1        0.1404
     21 N          62.6997   85.4853    9.8907 N.ar    1  UNL1       -0.1276
     22 N          61.9735   85.5971   11.1984 N.ar    1  UNL1       -0.0674
     23 N          61.1916   86.8771   11.1866 N.ar    1  UNL1       -0.2579
     24 H          60.6194   87.2124   11.9142 H       1  UNL1        0.1904
     25 C          59.1230   86.9310    9.2662 C.3     1  UNL1        0.0031
     26 C          59.7872   88.1349    8.6666 C.3     1  UNL1        0.0340
     27 C          59.3901   88.6075    7.2995 C.3     1  UNL1        0.0031
@<TRIPOS>BOND
     1    25    26    1
     2    26    27    1
     3    26    16    1
     4    16    17    1
     5    16     1    1
     6     1     2   ar
     7     2     3   ar
     8     3     4   ar
     9     4     5   ar
    10     5     6   ar
    11     6    11    1
    12    11    12   ar
    13    12    13   ar
    14    13    14   ar
    15    14    15   ar
    16     6     7   ar
    17     7     8   ar
    18     8     9   ar
    19     9    10   ar
    20    16    19    1
    21    19    20   ar
    22    20    21   ar
    23    21    22   ar
    24    22    23   ar
    25    10     1   ar
    26    23    19   ar
    27     9     4   ar
    28    15    11   ar
    29    17    18    1
    30    23    24    1
@<TRIPOS>MOLECULE
*****
 27 30 0 0 0
SMALL
GASTEIGER

@<TRIPOS>ATOM
      1 C          63.2326   84.0296   14.2144 C.ar    1  UNL1        0.0070
      2 C          64.1127   84.3958   15.3725 C.ar    1  UNL1       -0.0017
      3 C          64.6160   85.8014   15.5168 C.ar    1  UNL1       -0.0002
      4 C          64.2392   86.8408   14.5030 C.ar    1  UNL1       -0.0000
      5 C          64.7425   88.2465   14.6474 C.ar    1  UNL1        0.0005
      6 C          64.3657   89.2858   13.6336 C.ar    1  UNL1        0.0060
      7 C          63.4856   88.9195   12.4754 C.ar    1  UNL1        0.0005
      8 C          62.9823   87.5139   12.3311 C.ar    1  UNL1        0.0000
      9 C          63.3591   86.4745   13.3449 C.ar    1  UNL1       -0.0002
     10 C          62.8558   85.0689   13.2006 C.ar    1  UNL1       -0.0017
     11 C          64.8690   90.6915   13.7779 C.ar    1  UNL1        0.0295
     12 C          65.3546   91.3283   15.0462 C.ar    1  UNL1        0.0070
     13 C          65.7608   92.7375   14.7315 C.ar    1  UNL1        0.0075
     14 C          65.5262   92.9716   13.2685 C.ar    1  UNL1        0.0354
     15 S          64.9751   91.7071   12.6792 S.2     1  UNL1       -0.0864
     16 C          62.7293   82.6239   14.0700 C.3     1  UNL1        0.1426
     17 O          62.1410   82.6929   15.4481 O.3     1  UNL1       -0.3770
     18 H          62.3442   81.8746   15.9277 H       1  UNL1        0.2112
     19 C          63.3175   82.5548   12.6919 C.ar    1  UNL1        0.1019
     20 C          62.5554   82.3418   11.4176 C.ar    1  UNL1        0.1404
     21 N          63.5380   82.3420   10.2842 N.ar    1  UNL1       -0.1276
     22 N          64.9075   82.5551   10.8581 N.ar    1  UNL1       -0.0674
     23 N          64.7712   82.6866   12.3461 N.ar    1  UNL1       -0.2579
     24 H          65.5067   82.8337   12.9838 H       1  UNL1        0.1904
     25 C          63.1871   80.1034   13.6368 C.3     1  UNL1        0.0031
     26 C          62.2260   81.2182   13.9256 C.3     1  UNL1        0.0340
     27 C          60.7615   80.9274   14.0700 C.3     1  UNL1        0.0031
@<TRIPOS>BOND
     1    25    26    1
     2    26    27    1
     3    26    16    1
     4    16    17    1
     5    16     1    1
     6     1     2   ar
     7     2     3   ar
     8     3     4   ar
     9     4     5   ar
    10     5     6   ar
    11     6    11    1
    12    11    12   ar
    13    12    13   ar
    14    13    14   ar
    15    14    15   ar
    16     6     7   ar
    17     7     8   ar
    18     8     9   ar
    19     9    10   ar
    20    16    19    1
    21    19    20   ar
    22    20    21   ar
    23    21    22   ar
    24    22    23   ar
    25    10     1   ar
    26    23    19   ar
    27     9     4   ar
    28    15    11   ar
    29    17    18    1
    30    23    24    1
@<TRIPOS>MOLECULE
*****
 27 30 0 0 0
SMALL
GASTEIGER

@<TRIPOS>ATOM
      1 C          62.3994   89.4247   10.6340 C.ar    1  UNL1        0.0070
      2 C          62.9255   90.6844   10.0126 C.ar    1  UNL1       -0.0017
      3 C          63.9416   91.5127   10.7416 C.ar    1  UNL1       -0.0002
      4 C          64.4316   91.0812   12.0920 C.ar    1  UNL1       -0.0000
      5 C          65.4477   91.9096   12.8210 C.ar    1  UNL1        0.0005
      6 C          65.9377   91.4781   14.1715 C.ar    1  UNL1        0.0060
      7 C          65.4115   90.2183   14.7930 C.ar    1  UNL1        0.0005
      8 C          64.3954   89.3900   14.0640 C.ar    1  UNL1        0.0000
      9 C          63.9055   89.8215   12.7135 C.ar    1  UNL1       -0.0002
     10 C          62.8894   88.9932   11.9845 C.ar    1  UNL1       -0.0017
     11 C          66.9538   92.3064   14.9005 C.ar    1  UNL1        0.0295
     12 C          67.9404   91.8026   15.9118 C.ar    1  UNL1        0.0070
     13 C          68.7581   92.9687   16.3826 C.ar    1  UNL1        0.0075
     14 C          68.2767   94.1932   15.6622 C.ar    1  UNL1        0.0354
     15 S          67.1616   93.7838   14.7462 S.2     1  UNL1       -0.0864
     16 C          61.3832   88.5963    9.9050 C.3     1  UNL1        0.1426
     17 O          62.4419   88.1436    8.9437 O.3     1  UNL1       -0.3770
     18 H          62.0953   88.1838    8.0386 H       1  UNL1        0.2112
     19 C          60.3246   89.0491   10.8663 C.ar    1  UNL1        0.1019
     20 C          59.7483   90.4310   10.9566 C.ar    1  UNL1        0.1404
     21 N          58.7238   90.4354   12.0523 N.ar    1  UNL1       -0.1276
     22 N          58.6669   89.0561   12.6392 N.ar    1  UNL1       -0.0674
     23 N          59.6563   88.1993   11.9063 N.ar    1  UNL1       -0.2579
     24 H          59.8355   87.2466   12.0777 H       1  UNL1        0.1904
     25 C          59.3742   88.4286    8.2663 C.3     1  UNL1        0.0031
     26 C          60.3671   87.7681    9.1761 C.3     1  UNL1        0.0340
     27 C          60.3439   86.2791    9.3569 C.3     1  UNL1        0.0031
@<TRIPOS>BOND
     1    25    26    1
     2    26    27    1
     3    26    16    1
     4    16    17    1
     5    16     1    1
     6     1     2   ar
     7     2     3   ar
     8     3     4   ar
     9     4     5   ar
    10     5     6   ar
    11     6    11    1
    12    11    12   ar
    13    12    13   ar
    14    13    14   ar
    15    14    15   ar
    16     6     7   ar
    17     7     8   ar
    18     8     9   ar
    19     9    10   ar
    20    16    19    1
    21    19    20   ar
    22    20    21   ar
    23    21    22   ar
    24    22    23   ar
    25    10     1   ar
    26    23    19   ar
    27     9     4   ar
    28    15    11   ar
    29    17    18    1
    30    23    24    1
@<TRIPOS>MOLECULE
*****
 27 30 0 0 0
SMALL
GASTEIGER

@<TRIPOS>ATOM
      1 C          62.4128   89.0502   11.0198 C.ar    1  UNL1        0.0070
      2 C          62.7264   88.2936   12.2765 C.ar    1  UNL1       -0.0017
      3 C          63.7289   88.8389   13.2498 C.ar    1  UNL1       -0.0002
      4 C          64.4179   90.1409   12.9665 C.ar    1  UNL1       -0.0000
      5 C          65.4205   90.6862   13.9400 C.ar    1  UNL1        0.0005
      6 C          66.1095   91.9882   13.6566 C.ar    1  UNL1        0.0060
      7 C          65.7959   92.7447   12.3999 C.ar    1  UNL1        0.0005
      8 C          64.7933   92.1994   11.4266 C.ar    1  UNL1        0.0000
      9 C          64.1044   90.8974   11.7099 C.ar    1  UNL1       -0.0002
     10 C          63.1018   90.3521   10.7365 C.ar    1  UNL1       -0.0017
     11 C          67.1120   92.5335   14.6300 C.ar    1  UNL1        0.0295
     12 C          67.9776   91.7249   15.5503 C.ar    1  UNL1        0.0070
     13 C          68.8256   92.6749   16.3430 C.ar    1  UNL1        0.0075
     14 C          68.4840   94.0707   15.9126 C.ar    1  UNL1        0.0354
     15 S          67.4250   93.9833   14.8539 S.2     1  UNL1       -0.0864
     16 C          61.4102   88.5048   10.0464 C.3     1  UNL1        0.1426
     17 O          62.5239   87.9370    9.2174 O.3     1  UNL1       -0.3770
     18 H          62.3565   88.1229    8.2802 H       1  UNL1        0.2112
     19 C          60.2966   89.0726   10.8754 C.ar    1  UNL1        0.1019
     20 C          59.8551   90.5060   10.8960 C.ar    1  UNL1        0.1404
     21 N          58.7144   90.6259   11.8628 N.ar    1  UNL1       -0.1276
     22 N          58.4510   89.2666   12.4398 N.ar    1  UNL1       -0.0674
     23 N          59.4287   88.3066   11.8296 N.ar    1  UNL1       -0.2579
     24 H          59.4902   87.3429   12.0216 H       1  UNL1        0.1904
     25 C          59.6833   88.8875    8.1435 C.3     1  UNL1        0.0031
     26 C          60.4077   87.9595    9.0731 C.3     1  UNL1        0.0340
     27 C          60.1294   86.4861    9.0293 C.3     1  UNL1        0.0031
@<TRIPOS>BOND
     1    25    26    1
     2    26    27    1
     3    26    16    1
     4    16    17    1
     5    16     1    1
     6     1     2   ar
     7     2     3   ar
     8     3     4   ar
     9     4     5   ar
    10     5     6   ar
    11     6    11    1
    12    11    12   ar
    13    12    13   ar
    14    13    14   ar
    15    14    15   ar
    16     6     7   ar
    17     7     8   ar
    18     8     9   ar
    19     9    10   ar
    20    16    19    1
    21    19    20   ar
    22    20    21   ar
    23    21    22   ar
    24    22    23   ar
    25    10     1   ar
    26    23    19   ar
    27     9     4   ar
    28    15    11   ar
    29    17    18    1
    30    23    24    1
@<TRIPOS>MOLECULE
*****
 27 30 0 0 0
SMALL
GASTEIGER

@<TRIPOS>ATOM
      1 C          64.8300   91.1522   12.9391 C.ar    1  UNL1        0.0070
      2 C          64.4290   91.9260   11.7183 C.ar    1  UNL1       -0.0017
      3 C          63.5298   91.2988   10.6946 C.ar    1  UNL1       -0.0002
      4 C          63.0317   89.8977   10.8917 C.ar    1  UNL1       -0.0000
      5 C          62.1326   89.2704    9.8679 C.ar    1  UNL1        0.0005
      6 C          61.6345   87.8693   10.0649 C.ar    1  UNL1        0.0060
      7 C          62.0355   87.0955   11.2858 C.ar    1  UNL1        0.0005
      8 C          62.9347   87.7228   12.3095 C.ar    1  UNL1        0.0000
      9 C          63.4328   89.1239   12.1125 C.ar    1  UNL1       -0.0002
     10 C          64.3319   89.7511   13.1362 C.ar    1  UNL1       -0.0017
     11 C          60.7354   87.2420    9.0412 C.ar    1  UNL1        0.0295
     12 C          61.0480   86.0266    8.2195 C.ar    1  UNL1        0.0070
     13 C          59.8716   85.7534    7.3299 C.ar    1  UNL1        0.0075
     14 C          58.8319   86.8000    7.6018 C.ar    1  UNL1        0.0354
     15 S          59.3658   87.7199    8.6594 S.2     1  UNL1       -0.0864
     16 C          65.7291   91.7795   13.9629 C.3     1  UNL1        0.1426
     17 O          65.1327   90.9029   15.0239 O.3     1  UNL1       -0.3770
     18 H          64.9500   91.4325   15.8159 H       1  UNL1        0.2112
     19 C          66.3256   92.6561   12.9019 C.ar    1  UNL1        0.1019
     20 C          66.1122   94.1337   12.7562 C.ar    1  UNL1        0.1404
     21 N          66.8950   94.5998   11.5645 N.ar    1  UNL1       -0.1276
     22 N          67.5922   93.4102   10.9737 N.ar    1  UNL1       -0.0674
     23 N          67.2403   92.2090   11.8003 N.ar    1  UNL1       -0.2579
     24 H          67.5546   91.2887   11.6467 H       1  UNL1        0.1904
     25 C          66.0527   92.9363   16.2666 C.3     1  UNL1        0.0031
     26 C          66.6283   92.4068   14.9866 C.3     1  UNL1        0.0340
     27 C          68.1030   92.5046   14.7304 C.3     1  UNL1        0.0031
@<TRIPOS>BOND
     1    25    26    1
     2    26    27    1
     3    26    16    1
     4    16    17    1
     5    16     1    1
     6     1     2   ar
     7     2     3   ar
     8     3     4   ar
     9     4     5   ar
    10     5     6   ar
    11     6    11    1
    12    11    12   ar
    13    12    13   ar
    14    13    14   ar
    15    14    15   ar
    16     6     7   ar
    17     7     8   ar
    18     8     9   ar
    19     9    10   ar
    20    16    19    1
    21    19    20   ar
    22    20    21   ar
    23    21    22   ar
    24    22    23   ar
    25    10     1   ar
    26    23    19   ar
    27     9     4   ar
    28    15    11   ar
    29    17    18    1
    30    23    24    1
@<TRIPOS>MOLECULE
*****
 27 30 0 0 0
SMALL
GASTEIGER

@<TRIPOS>ATOM
      1 C          65.5928   91.6670   13.1860 C.ar    1  UNL1        0.0070
      2 C          65.2251   92.5326   12.0175 C.ar    1  UNL1       -0.0017
      3 C          64.2082   92.0573   11.0227 C.ar    1  UNL1       -0.0002
      4 C          63.5589   90.7163   11.1964 C.ar    1  UNL1       -0.0000
      5 C          62.5418   90.2409   10.2014 C.ar    1  UNL1        0.0005
      6 C          61.8925   88.8999   10.3751 C.ar    1  UNL1        0.0060
      7 C          62.2603   88.0343   11.5437 C.ar    1  UNL1        0.0005
      8 C          63.2773   88.5096   12.5385 C.ar    1  UNL1        0.0000
      9 C          63.9265   89.8506   12.3649 C.ar    1  UNL1       -0.0002
     10 C          64.9435   90.3260   13.3597 C.ar    1  UNL1       -0.0017
     11 C          60.8756   88.4245    9.3803 C.ar    1  UNL1        0.0295
     12 C          60.1224   89.2851    8.4096 C.ar    1  UNL1        0.0070
     13 C          59.2145   88.3976    7.6109 C.ar    1  UNL1        0.0075
     14 C          59.4066   86.9884    8.0879 C.ar    1  UNL1        0.0354
     15 S          60.4332   87.0051    9.1814 S.2     1  UNL1       -0.0864
     16 C          66.6098   92.1424   14.1809 C.3     1  UNL1        0.1426
     17 O          67.6503   92.1766   13.1010 O.3     1  UNL1       -0.3770
     18 H          68.4728   91.7832   13.4320 H       1  UNL1        0.2112
     19 C          65.5694   92.1081   15.2608 C.ar    1  UNL1        0.1019
     20 C          64.3619   91.2187   15.2939 C.ar    1  UNL1        0.1404
     21 N          63.5999   91.5181   16.5509 N.ar    1  UNL1       -0.1276
     22 N          64.3365   92.5926   17.2946 N.ar    1  UNL1       -0.0674
     23 N          65.5536   92.9572   16.4973 N.ar    1  UNL1       -0.2579
     24 H          66.2244   93.6348   16.7426 H       1  UNL1        0.1904
     25 C          68.2884   91.6375   16.0986 C.3     1  UNL1        0.0031
     26 C          67.6268   92.6177   15.1758 C.3     1  UNL1        0.0340
     27 C          67.9822   94.0732   15.2479 C.3     1  UNL1        0.0031
@<TRIPOS>BOND
     1    25    26    1
     2    26    27    1
     3    26    16    1
     4    16    17    1
     5    16     1    1
     6     1     2   ar
     7     2     3   ar
     8     3     4   ar
     9     4     5   ar
    10     5     6   ar
    11     6    11    1
    12    11    12   ar
    13    12    13   ar
    14    13    14   ar
    15    14    15   ar
    16     6     7   ar
    17     7     8   ar
    18     8     9   ar
    19     9    10   ar
    20    16    19    1
    21    19    20   ar
    22    20    21   ar
    23    21    22   ar
    24    22    23   ar
    25    10     1   ar
    26    23    19   ar
    27     9     4   ar
    28    15    11   ar
    29    17    18    1
    30    23    24    1
@<TRIPOS>MOLECULE
*****
 27 30 0 0 0
SMALL
GASTEIGER

@<TRIPOS>ATOM
      1 C          62.6642   84.0262   13.3795 C.ar    1  UNL1        0.0070
      2 C          62.2630   84.6363   12.0692 C.ar    1  UNL1       -0.0017
      3 C          62.5803   86.0742   11.7830 C.ar    1  UNL1       -0.0002
      4 C          63.2988   86.9019   12.8071 C.ar    1  UNL1       -0.0000
      5 C          63.6161   88.3398   12.5208 C.ar    1  UNL1        0.0005
      6 C          64.3346   89.1675   13.5448 C.ar    1  UNL1        0.0060
      7 C          64.7358   88.5573   14.8551 C.ar    1  UNL1        0.0005
      8 C          64.4185   87.1195   15.1413 C.ar    1  UNL1        0.0000
      9 C          63.7000   86.2918   14.1173 C.ar    1  UNL1       -0.0002
     10 C          63.3827   84.8539   14.4035 C.ar    1  UNL1       -0.0017
     11 C          64.6519   90.6053   13.2586 C.ar    1  UNL1        0.0295
     12 C          64.2530   91.3687   12.0305 C.ar    1  UNL1        0.0070
     13 C          64.7784   92.7674   12.1631 C.ar    1  UNL1        0.0075
     14 C          65.5019   92.8684   13.4733 C.ar    1  UNL1        0.0354
     15 S          65.4237   91.5322   14.1503 S.2     1  UNL1       -0.0864
     16 C          62.3469   82.5883   13.6657 C.3     1  UNL1        0.1426
     17 O          61.7141   82.9868   14.9660 O.3     1  UNL1       -0.3770
     18 H          62.0047   82.3813   15.6659 H       1  UNL1        0.2112
     19 C          62.9797   82.1899   12.3654 C.ar    1  UNL1        0.1019
     20 C          64.3324   82.6154   11.8762 C.ar    1  UNL1        0.1404
     21 N          64.5596   81.9844   10.5344 N.ar    1  UNL1       -0.1276
     22 N          63.3473   81.1690   10.1944 N.ar    1  UNL1       -0.0674
     23 N          62.3710   81.2959   11.3260 N.ar    1  UNL1       -0.2579
     24 H          61.4859   80.8678   11.3775 H       1  UNL1        0.1904
     25 C          60.6078   80.7252   14.1698 C.3     1  UNL1        0.0031
     26 C          62.0297   81.1505   13.9519 C.3     1  UNL1        0.0340
     27 C          63.1343   80.1379   14.0202 C.3     1  UNL1        0.0031
@<TRIPOS>BOND
     1    25    26    1
     2    26    27    1
     3    26    16    1
     4    16    17    1
     5    16     1    1
     6     1     2   ar
     7     2     3   ar
     8     3     4   ar
     9     4     5   ar
    10     5     6   ar
    11     6    11    1
    12    11    12   ar
    13    12    13   ar
    14    13    14   ar
    15    14    15   ar
    16     6     7   ar
    17     7     8   ar
    18     8     9   ar
    19     9    10   ar
    20    16    19    1
    21    19    20   ar
    22    20    21   ar
    23    21    22   ar
    24    22    23   ar
    25    10     1   ar
    26    23    19   ar
    27     9     4   ar
    28    15    11   ar
    29    17    18    1
    30    23    24    1
