@<TRIPOS>MOLECULE
*****
 18 20 0 0 0
SMALL
GASTEIGER

@<TRIPOS>ATOM
      1 C          61.9459   89.5618   11.5794 C.ar    1  UNL1        0.1406
      2 C          62.1426   90.1353   10.2074 C.ar    1  UNL1        0.0370
      3 C          63.2060   91.1664    9.9710 C.ar    1  UNL1        0.0046
      4 C          64.0726   91.6241   11.1066 C.ar    1  UNL1        0.0179
      5 C          65.1360   92.6553   10.8702 C.ar    1  UNL1        0.0031
      6 C          66.0025   93.1130   12.0057 C.ar    1  UNL1        0.0207
      7 C          65.8058   92.5395   13.3777 C.ar    1  UNL1        0.0988
      8 N          64.7424   91.5083   13.6142 N.ar    1  UNL1       -0.2437
      9 C          63.8759   91.0506   12.4786 C.ar    1  UNL1        0.0843
     10 C          62.8124   90.0194   12.7150 C.ar    1  UNL1        0.0560
     11 O          60.8824   88.5305   11.8158 O.3     1  UNL1       -0.4706
     12 C          60.5353   87.5498   10.7352 C.3     1  UNL1        0.2320
     13 C          63.4477   84.3055    9.6209 C.ar    1  UNL1       -0.0000
     14 C          62.9806   85.2829    8.5832 C.ar    1  UNL1       -0.0002
     15 C          62.0098   86.3643    8.9547 C.ar    1  UNL1       -0.0007
     16 C          61.5061   86.4684   10.3638 C.ar    1  UNL1        0.0212
     17 C          61.9732   85.4911   11.4013 C.ar    1  UNL1       -0.0007
     18 C          62.9440   84.4096   11.0299 C.ar    1  UNL1       -0.0002
@<TRIPOS>BOND
     1    13    14   ar
     2    14    15   ar
     3    15    16   ar
     4    16    12    1
     5    12    11    1
     6    11     1    1
     7     1     2   ar
     8     2     3   ar
     9     3     4   ar
    10     4     5   ar
    11     5     6   ar
    12     6     7   ar
    13     7     8   ar
    14     8     9   ar
    15     9    10   ar
    16    16    17   ar
    17    17    18   ar
    18    18    13   ar
    19    10     1   ar
    20     9     4   ar
@<TRIPOS>MOLECULE
*****
 18 20 0 0 0
SMALL
GASTEIGER

@<TRIPOS>ATOM
      1 C          63.3715   83.9089   12.9689 C.ar    1  UNL1        0.1406
      2 C          64.2793   83.1389   12.0562 C.ar    1  UNL1        0.0370
      3 C          64.2252   83.3696   10.5751 C.ar    1  UNL1        0.0046
      4 C          63.2631   84.3703   10.0065 C.ar    1  UNL1        0.0179
      5 C          63.2090   84.6010    8.5254 C.ar    1  UNL1        0.0031
      6 C          62.2470   85.6017    7.9570 C.ar    1  UNL1        0.0207
      7 C          61.3392   86.3717    8.8697 C.ar    1  UNL1        0.0988
      8 N          61.3934   86.1410   10.3508 N.ar    1  UNL1       -0.2437
      9 C          62.3553   85.1403   10.9192 C.ar    1  UNL1        0.0843
     10 C          62.4095   84.9096   12.4004 C.ar    1  UNL1        0.0560
     11 O          63.4257   83.6781   14.4501 O.3     1  UNL1       -0.4706
     12 C          64.3574   84.4884   15.3018 C.3     1  UNL1        0.2320
     13 C          63.3076   88.7300   16.3773 C.ar    1  UNL1       -0.0000
     14 C          62.8822   87.6025   17.2705 C.ar    1  UNL1       -0.0002
     15 C          63.2321   86.1887   16.9120 C.ar    1  UNL1       -0.0007
     16 C          64.0075   85.9023   15.6603 C.ar    1  UNL1        0.0212
     17 C          64.4329   87.0297   14.7671 C.ar    1  UNL1       -0.0007
     18 C          64.0830   88.4436   15.1256 C.ar    1  UNL1       -0.0002
@<TRIPOS>BOND
     1    13    14   ar
     2    14    15   ar
     3    15    16   ar
     4    16    12    1
     5    12    11    1
     6    11     1    1
     7     1     2   ar
     8     2     3   ar
     9     3     4   ar
    10     4     5   ar
    11     5     6   ar
    12     6     7   ar
    13     7     8   ar
    14     8     9   ar
    15     9    10   ar
    16    16    17   ar
    17    17    18   ar
    18    18    13   ar
    19    10     1   ar
    20     9     4   ar
@<TRIPOS>MOLECULE
*****
 18 20 0 0 0
SMALL
GASTEIGER

@<TRIPOS>ATOM
      1 C          61.4635   86.8039   10.0425 C.ar    1  UNL1        0.1406
      2 C          62.1570   86.3752    8.7835 C.ar    1  UNL1        0.0370
      3 C          63.0413   85.1636    8.7896 C.ar    1  UNL1        0.0046
      4 C          63.2321   84.3807   10.0549 C.ar    1  UNL1        0.0179
      5 C          64.1164   83.1691   10.0610 C.ar    1  UNL1        0.0031
      6 C          64.3072   82.3863   11.3262 C.ar    1  UNL1        0.0207
      7 C          63.6137   82.8151   12.5852 C.ar    1  UNL1        0.0988
      8 N          62.7294   84.0266   12.5791 N.ar    1  UNL1       -0.2437
      9 C          62.5386   84.8094   11.3139 C.ar    1  UNL1        0.0843
     10 C          61.6543   86.0211   11.3077 C.ar    1  UNL1        0.0560
     11 O          60.5792   88.0155   10.0364 O.3     1  UNL1       -0.4706
     12 C          61.1464   89.3562    9.6745 C.3     1  UNL1        0.2320
     13 C          64.1961   91.3052   12.3486 C.ar    1  UNL1       -0.0000
     14 C          63.2851   90.2470   12.8966 C.ar    1  UNL1       -0.0002
     15 C          62.2685   89.5973   12.0053 C.ar    1  UNL1       -0.0007
     16 C          62.1629   90.0058   10.5659 C.ar    1  UNL1        0.0212
     17 C          63.0739   91.0640   10.0178 C.ar    1  UNL1       -0.0007
     18 C          64.0905   91.7137   10.9091 C.ar    1  UNL1       -0.0002
@<TRIPOS>BOND
     1    13    14   ar
     2    14    15   ar
     3    15    16   ar
     4    16    12    1
     5    12    11    1
     6    11     1    1
     7     1     2   ar
     8     2     3   ar
     9     3     4   ar
    10     4     5   ar
    11     5     6   ar
    12     6     7   ar
    13     7     8   ar
    14     8     9   ar
    15     9    10   ar
    16    16    17   ar
    17    17    18   ar
    18    18    13   ar
    19    10     1   ar
    20     9     4   ar
@<TRIPOS>MOLECULE
*****
 18 20 0 0 0
SMALL
GASTEIGER

@<TRIPOS>ATOM
      1 C          62.9998   89.8823   12.0586 C.ar    1  UNL1        0.1406
      2 C          63.3142   90.7004   10.8412 C.ar    1  UNL1        0.0370
      3 C          64.2904   91.8356   10.9320 C.ar    1  UNL1        0.0046
      4 C          64.9524   92.1527   12.2402 C.ar    1  UNL1        0.0179
      5 C          65.9287   93.2878   12.3310 C.ar    1  UNL1        0.0031
      6 C          66.5907   93.6049   13.6391 C.ar    1  UNL1        0.0207
      7 C          66.2763   92.7868   14.8564 C.ar    1  UNL1        0.0988
      8 N          65.3001   91.6517   14.7657 N.ar    1  UNL1       -0.2437
      9 C          64.6381   91.3346   13.4575 C.ar    1  UNL1        0.0843
     10 C          63.6618   90.1994   13.3667 C.ar    1  UNL1        0.0560
     11 O          62.0235   88.7471   11.9678 O.3     1  UNL1       -0.4706
     12 C          62.1854   87.7020   10.9041 C.3     1  UNL1        0.2320
     13 C          59.3085   87.5451    7.4474 C.ar    1  UNL1       -0.0000
     14 C          59.8772   86.2753    8.0081 C.ar    1  UNL1       -0.0002
     15 C          60.8362   86.3276    9.1603 C.ar    1  UNL1       -0.0007
     16 C          61.2265   87.6497    9.7519 C.ar    1  UNL1        0.0212
     17 C          60.6578   88.9194    9.1912 C.ar    1  UNL1       -0.0007
     18 C          59.6988   88.8671    8.0389 C.ar    1  UNL1       -0.0002
@<TRIPOS>BOND
     1    13    14   ar
     2    14    15   ar
     3    15    16   ar
     4    16    12    1
     5    12    11    1
     6    11     1    1
     7     1     2   ar
     8     2     3   ar
     9     3     4   ar
    10     4     5   ar
    11     5     6   ar
    12     6     7   ar
    13     7     8   ar
    14     8     9   ar
    15     9    10   ar
    16    16    17   ar
    17    17    18   ar
    18    18    13   ar
    19    10     1   ar
    20     9     4   ar
@<TRIPOS>MOLECULE
*****
 18 20 0 0 0
SMALL
GASTEIGER

@<TRIPOS>ATOM
      1 C          63.3047   89.6031   12.6737 C.ar    1  UNL1        0.1406
      2 C          63.8805   88.9923   13.9168 C.ar    1  UNL1        0.0370
      3 C          64.9485   89.7156   14.6824 C.ar    1  UNL1        0.0046
      4 C          65.4408   91.0497   14.2049 C.ar    1  UNL1        0.0179
      5 C          66.5088   91.7730   14.9705 C.ar    1  UNL1        0.0031
      6 C          67.0009   93.1070   14.4930 C.ar    1  UNL1        0.0207
      7 C          66.4251   93.7178   13.2499 C.ar    1  UNL1        0.0988
      8 N          65.3571   92.9945   12.4843 N.ar    1  UNL1       -0.2437
      9 C          64.8649   91.6605   12.9618 C.ar    1  UNL1        0.0843
     10 C          63.7968   90.9371   12.1962 C.ar    1  UNL1        0.0560
     11 O          62.2366   88.8797   11.9081 O.3     1  UNL1       -0.4706
     12 C          61.9981   89.2056   10.4635 C.3     1  UNL1        0.2320
     13 C          60.2250   86.1094    7.7214 C.ar    1  UNL1       -0.0000
     14 C          59.5220   87.4182    7.9290 C.ar    1  UNL1       -0.0002
     15 C          60.1131   88.4502    8.8430 C.ar    1  UNL1       -0.0007
     16 C          61.4071   88.1736    9.5495 C.ar    1  UNL1        0.0212
     17 C          62.1100   86.8649    9.3419 C.ar    1  UNL1       -0.0007
     18 C          61.5189   85.8327    8.4279 C.ar    1  UNL1       -0.0002
@<TRIPOS>BOND
     1    13    14   ar
     2    14    15   ar
     3    15    16   ar
     4    16    12    1
     5    12    11    1
     6    11     1    1
     7     1     2   ar
     8     2     3   ar
     9     3     4   ar
    10     4     5   ar
    11     5     6   ar
    12     6     7   ar
    13     7     8   ar
    14     8     9   ar
    15     9    10   ar
    16    16    17   ar
    17    17    18   ar
    18    18    13   ar
    19    10     1   ar
    20     9     4   ar
@<TRIPOS>MOLECULE
*****
 18 20 0 0 0
SMALL
GASTEIGER

@<TRIPOS>ATOM
      1 C          62.5720   86.5017   11.5560 C.ar    1  UNL1        0.1406
      2 C          62.6824   87.9944   11.6531 C.ar    1  UNL1        0.0370
      3 C          61.9123   88.8666   10.7064 C.ar    1  UNL1        0.0046
      4 C          61.0316   88.2459    9.6627 C.ar    1  UNL1        0.0179
      5 C          60.2615   89.1181    8.7160 C.ar    1  UNL1        0.0031
      6 C          59.3809   88.4974    7.6723 C.ar    1  UNL1        0.0207
      7 C          59.2705   87.0047    7.5752 C.ar    1  UNL1        0.0988
      8 N          60.0407   86.1325    8.5219 N.ar    1  UNL1       -0.2437
      9 C          60.9212   86.7532    9.5656 C.ar    1  UNL1        0.0843
     10 C          61.6914   85.8810   10.5123 C.ar    1  UNL1        0.0560
     11 O          63.3422   85.6295   12.5028 O.3     1  UNL1       -0.4706
     12 C          62.6130   84.7132   13.4401 C.3     1  UNL1        0.2320
     13 C          62.5759   80.2786   12.6767 C.ar    1  UNL1       -0.0000
     14 C          62.1266   80.8150   14.0035 C.ar    1  UNL1       -0.0002
     15 C          62.1390   82.2932   14.2580 C.ar    1  UNL1       -0.0007
     16 C          62.6007   83.2350   13.1857 C.ar    1  UNL1        0.0212
     17 C          63.0500   82.6986   11.8589 C.ar    1  UNL1       -0.0007
     18 C          63.0376   81.2204   11.6043 C.ar    1  UNL1       -0.0002
@<TRIPOS>BOND
     1    13    14   ar
     2    14    15   ar
     3    15    16   ar
     4    16    12    1
     5    12    11    1
     6    11     1    1
     7     1     2   ar
     8     2     3   ar
     9     3     4   ar
    10     4     5   ar
    11     5     6   ar
    12     6     7   ar
    13     7     8   ar
    14     8     9   ar
    15     9    10   ar
    16    16    17   ar
    17    17    18   ar
    18    18    13   ar
    19    10     1   ar
    20     9     4   ar
@<TRIPOS>MOLECULE
*****
 18 20 0 0 0
SMALL
GASTEIGER

@<TRIPOS>ATOM
      1 C          63.3067   84.3625    9.7356 C.ar    1  UNL1        0.1406
      2 C          63.0385   84.6512    8.2882 C.ar    1  UNL1        0.0370
      3 C          62.0884   85.7470    7.9056 C.ar    1  UNL1        0.0046
      4 C          61.4065   86.5542    8.9702 C.ar    1  UNL1        0.0179
      5 C          60.4564   87.6501    8.5876 C.ar    1  UNL1        0.0031
      6 C          59.7745   88.4572    9.6522 C.ar    1  UNL1        0.0207
      7 C          60.0428   88.1686   11.0995 C.ar    1  UNL1        0.0988
      8 N          60.9928   87.0727   11.4822 N.ar    1  UNL1       -0.2437
      9 C          61.6747   86.2656   10.4176 C.ar    1  UNL1        0.0843
     10 C          62.6248   85.1697   10.8002 C.ar    1  UNL1        0.0560
     11 O          64.2568   83.2666   10.1182 O.3     1  UNL1       -0.4706
     12 C          64.6060   83.0463   11.5603 C.3     1  UNL1        0.2320
     13 C          61.6312   81.1080   14.3250 C.ar    1  UNL1       -0.0000
     14 C          62.1066   80.3780   13.1038 C.ar    1  UNL1       -0.0002
     15 C          63.0981   81.0241   12.1823 C.ar    1  UNL1       -0.0007
     16 C          63.6144   82.4002   12.4818 C.ar    1  UNL1        0.0212
     17 C          63.1391   83.1302   13.7029 C.ar    1  UNL1       -0.0007
     18 C          62.1474   82.4841   14.6245 C.ar    1  UNL1       -0.0002
@<TRIPOS>BOND
     1    13    14   ar
     2    14    15   ar
     3    15    16   ar
     4    16    12    1
     5    12    11    1
     6    11     1    1
     7     1     2   ar
     8     2     3   ar
     9     3     4   ar
    10     4     5   ar
    11     5     6   ar
    12     6     7   ar
    13     7     8   ar
    14     8     9   ar
    15     9    10   ar
    16    16    17   ar
    17    17    18   ar
    18    18    13   ar
    19    10     1   ar
    20     9     4   ar
@<TRIPOS>MOLECULE
*****
 18 20 0 0 0
SMALL
GASTEIGER

@<TRIPOS>ATOM
      1 C          62.5091   85.3984    9.7640 C.ar    1  UNL1        0.1406
      2 C          61.8194   85.7146    8.4700 C.ar    1  UNL1        0.0370
      3 C          61.0391   86.9876    8.3275 C.ar    1  UNL1        0.0046
      4 C          60.9484   87.9446    9.4791 C.ar    1  UNL1        0.0179
      5 C          60.1681   89.2177    9.3366 C.ar    1  UNL1        0.0031
      6 C          60.0775   90.1746   10.4882 C.ar    1  UNL1        0.0207
      7 C          60.7671   89.8584   11.7821 C.ar    1  UNL1        0.0988
      8 N          61.5475   88.5854   11.9246 N.ar    1  UNL1       -0.2437
      9 C          61.6381   87.6285   10.7731 C.ar    1  UNL1        0.0843
     10 C          62.4185   86.3553   10.9155 C.ar    1  UNL1        0.0560
     11 O          63.2895   84.1252    9.9064 O.3     1  UNL1       -0.4706
     12 C          63.9531   83.7942   11.2102 C.3     1  UNL1        0.2320
     13 C          61.9011   81.0785   14.1537 C.ar    1  UNL1       -0.0000
     14 C          62.3820   80.5351   12.8409 C.ar    1  UNL1       -0.0002
     15 C          63.0659   81.4403   11.8598 C.ar    1  UNL1       -0.0007
     16 C          63.2691   82.8890   12.1914 C.ar    1  UNL1        0.0212
     17 C          62.7883   83.4325   13.5041 C.ar    1  UNL1       -0.0007
     18 C          62.1042   82.5272   14.4854 C.ar    1  UNL1       -0.0002
@<TRIPOS>BOND
     1    13    14   ar
     2    14    15   ar
     3    15    16   ar
     4    16    12    1
     5    12    11    1
     6    11     1    1
     7     1     2   ar
     8     2     3   ar
     9     3     4   ar
    10     4     5   ar
    11     5     6   ar
    12     6     7   ar
    13     7     8   ar
    14     8     9   ar
    15     9    10   ar
    16    16    17   ar
    17    17    18   ar
    18    18    13   ar
    19    10     1   ar
    20     9     4   ar
@<TRIPOS>MOLECULE
*****
 18 20 0 0 0
SMALL
GASTEIGER

@<TRIPOS>ATOM
      1 C          62.2482   86.5816   10.9271 C.ar    1  UNL1        0.1406
      2 C          61.9664   87.5531    9.8195 C.ar    1  UNL1        0.0370
      3 C          62.3062   89.0041    9.9900 C.ar    1  UNL1        0.0046
      4 C          62.9277   89.4837   11.2682 C.ar    1  UNL1        0.0179
      5 C          63.2675   90.9347   11.4387 C.ar    1  UNL1        0.0031
      6 C          63.8890   91.4143   12.7169 C.ar    1  UNL1        0.0207
      7 C          64.1708   90.4428   13.8245 C.ar    1  UNL1        0.0988
      8 N          63.8311   88.9918   13.6540 N.ar    1  UNL1       -0.2437
      9 C          63.2096   88.5122   12.3759 C.ar    1  UNL1        0.0843
     10 C          62.8698   87.0612   12.2053 C.ar    1  UNL1        0.0560
     11 O          61.9085   85.1306   10.7566 O.3     1  UNL1       -0.4706
     12 C          62.9663   84.0848   10.9501 C.3     1  UNL1        0.2320
     13 C          62.3855   80.8360   14.0092 C.ar    1  UNL1       -0.0000
     14 C          62.2795   82.2762   14.4152 C.ar    1  UNL1       -0.0002
     15 C          62.4731   83.3591   13.3955 C.ar    1  UNL1       -0.0007
     16 C          62.7727   83.0019   11.9698 C.ar    1  UNL1        0.0212
     17 C          62.8786   81.5619   11.5637 C.ar    1  UNL1       -0.0007
     18 C          62.6850   80.4789   12.5834 C.ar    1  UNL1       -0.0002
@<TRIPOS>BOND
     1    13    14   ar
     2    14    15   ar
     3    15    16   ar
     4    16    12    1
     5    12    11    1
     6    11     1    1
     7     1     2   ar
     8     2     3   ar
     9     3     4   ar
    10     4     5   ar
    11     5     6   ar
    12     6     7   ar
    13     7     8   ar
    14     8     9   ar
    15     9    10   ar
    16    16    17   ar
    17    17    18   ar
    18    18    13   ar
    19    10     1   ar
    20     9     4   ar
