@<TRIPOS>MOLECULE
*****
 33 36 0 0 0
SMALL
GASTEIGER

@<TRIPOS>ATOM
      1 C          65.2490   92.1818   12.3787 C.ar    1  UNL1       -0.0004
      2 C          64.7550   91.3867   13.5507 C.ar    1  UNL1       -0.0024
      3 C          63.5626   90.4893   13.3992 C.ar    1  UNL1       -0.0002
      4 C          62.8643   90.3871   12.0756 C.ar    1  UNL1        0.0030
      5 C          61.6718   89.4897   11.9241 C.ar    1  UNL1        0.0369
      6 C          60.9735   89.3875   10.6006 C.ar    1  UNL1        0.1391
      7 C          61.4676   90.1826    9.4285 C.ar    1  UNL1        0.0369
      8 C          62.6599   91.0800    9.5800 C.ar    1  UNL1        0.0031
      9 C          63.3583   91.1822   10.9036 C.ar    1  UNL1       -0.0001
     10 C          64.5506   92.0795   11.0551 C.ar    1  UNL1       -0.0024
     11 C          66.4414   93.0791   12.5302 C.3     1  UNL1        0.1240
     12 N          67.2992   92.9859   13.7572 N.ar    1  UNL1       -0.3045
     13 C          67.2010   93.8626   14.9703 C.ar    1  UNL1        0.0983
     14 C          68.2469   93.4181   15.9494 C.ar    1  UNL1        0.1193
     15 N          68.9914   92.2666   15.3414 N.ar    1  UNL1       -0.2223
     16 C          68.4057   91.9995   13.9866 C.ar    1  UNL1        0.1788
     17 C          66.2843   95.4831   11.5574 C.3     1  UNL1        0.0197
     18 C          66.7761   94.0697   11.4547 C.3     1  UNL1        0.0827
     19 N          67.6025   93.6470   10.2764 N.3     1  UNL1       -0.2696
     20 C          67.8629   94.6122    9.1580 C.3     1  UNL1        0.0897
     21 C          68.1684   92.2592   10.2165 C.3     1  UNL1        0.0897
     22 O          59.7811   88.4901   10.4490 O.3     1  UNL1       -0.4706
     23 C          59.8419   87.3120    9.5225 C.3     1  UNL1        0.2320
     24 C          60.9616   86.3210    9.6419 C.ar    1  UNL1        0.0211
     25 C          61.3202   85.7526   10.9829 C.ar    1  UNL1       -0.0010
     26 C          62.4398   84.7615   11.1023 C.ar    1  UNL1       -0.0041
     27 C          63.2008   84.3389    9.8807 C.ar    1  UNL1       -0.0166
     28 C          62.8422   84.9074    8.5397 C.ar    1  UNL1       -0.0041
     29 C          61.7226   85.8984    8.4203 C.ar    1  UNL1       -0.0010
     30 C          64.3205   83.3479   10.0001 C.3     1  UNL1        0.0679
     31 C          64.1492   82.1213   10.8463 C.2     1  UNL1        0.0547
     32 O          63.3990   80.9385   10.3095 O.co2   1  UNL1       -0.5488
     33 O          64.7282   82.0775   12.2294 O.co2   1  UNL1       -0.5488
@<TRIPOS>UNITY_ATOM_ATTR
32 1
charge -1
@<TRIPOS>BOND
     1    17    18    1
     2    18    11    1
     3    11     1    1
     4     1     2   ar
     5     2     3   ar
     6     3     4   ar
     7     4     5   ar
     8     5     6   ar
     9     6    22    1
    10    22    23    1
    11    23    24    1
    12    24    25   ar
    13    25    26   ar
    14    26    27   ar
    15    27    30    1
    16    30    31    1
    17    31    32   ar
    18    31    33   ar
    19    27    28   ar
    20    28    29   ar
    21     6     7   ar
    22     7     8   ar
    23     8     9   ar
    24     9    10   ar
    25    11    12    1
    26    12    13   ar
    27    13    14   ar
    28    14    15   ar
    29    15    16   ar
    30    18    19    1
    31    19    20    1
    32    19    21    1
    33    10     1   ar
    34    16    12   ar
    35     9     4   ar
    36    29    24   ar
@<TRIPOS>MOLECULE
*****
 33 36 0 0 0
SMALL
GASTEIGER

@<TRIPOS>ATOM
      1 C          63.5527   85.3082   12.9094 C.ar    1  UNL1       -0.0004
      2 C          64.2844   85.2176   14.2157 C.ar    1  UNL1       -0.0024
      3 C          64.5931   86.4644   14.9904 C.ar    1  UNL1       -0.0002
      4 C          64.1701   87.8018   14.4588 C.ar    1  UNL1        0.0030
      5 C          64.4789   89.0486   15.2335 C.ar    1  UNL1        0.0369
      6 C          64.0560   90.3859   14.7019 C.ar    1  UNL1        0.1391
      7 C          63.3242   90.4765   13.3956 C.ar    1  UNL1        0.0369
      8 C          63.0155   89.2297   12.6209 C.ar    1  UNL1        0.0031
      9 C          63.4385   87.8923   13.1525 C.ar    1  UNL1       -0.0001
     10 C          63.1297   86.6455   12.3778 C.ar    1  UNL1       -0.0024
     11 C          63.2439   84.0614   12.1347 C.3     1  UNL1        0.1240
     12 N          62.7728   82.8306   12.8511 N.ar    1  UNL1       -0.3045
     13 C          62.8715   81.4226   12.3432 C.ar    1  UNL1        0.0983
     14 C          62.2800   80.5135   13.3794 C.ar    1  UNL1        0.1193
     15 N          61.8157   81.3596   14.5276 N.ar    1  UNL1       -0.2223
     16 C          62.1203   82.7916   14.2011 C.ar    1  UNL1        0.1788
     17 C          64.3565   83.0775   10.0029 C.3     1  UNL1        0.0197
     18 C          63.4063   84.0454   10.6436 C.3     1  UNL1        0.0827
     19 N          62.6184   84.9972    9.7931 N.3     1  UNL1       -0.2696
     20 C          63.1233   85.3829    8.4342 C.3     1  UNL1        0.0897
     21 C          61.3258   85.5634   10.3014 C.3     1  UNL1        0.0897
     22 O          64.3647   91.6327   15.4766 O.3     1  UNL1       -0.4706
     23 C          65.6855   92.3203   15.2958 C.3     1  UNL1        0.2320
     24 C          66.3813   92.2708   13.9679 C.ar    1  UNL1        0.0211
     25 C          67.7736   91.7212   13.8708 C.ar    1  UNL1       -0.0010
     26 C          68.4694   91.6716   12.5428 C.ar    1  UNL1       -0.0041
     27 C          67.7729   92.1717   11.3120 C.ar    1  UNL1       -0.0166
     28 C          66.3806   92.7213   11.4092 C.ar    1  UNL1       -0.0041
     29 C          65.6848   92.7708   12.7371 C.ar    1  UNL1       -0.0010
     30 C          68.4687   92.1221    9.9841 C.3     1  UNL1        0.0679
     31 C          68.4069   93.3024    9.0605 C.2     1  UNL1        0.0547
     32 O          68.4882   93.0987    7.5767 O.co2   1  UNL1       -0.5488
     33 O          68.2637   94.6865    9.6208 O.co2   1  UNL1       -0.5488
@<TRIPOS>UNITY_ATOM_ATTR
32 1
charge -1
@<TRIPOS>BOND
     1    17    18    1
     2    18    11    1
     3    11     1    1
     4     1     2   ar
     5     2     3   ar
     6     3     4   ar
     7     4     5   ar
     8     5     6   ar
     9     6    22    1
    10    22    23    1
    11    23    24    1
    12    24    25   ar
    13    25    26   ar
    14    26    27   ar
    15    27    30    1
    16    30    31    1
    17    31    32   ar
    18    31    33   ar
    19    27    28   ar
    20    28    29   ar
    21     6     7   ar
    22     7     8   ar
    23     8     9   ar
    24     9    10   ar
    25    11    12    1
    26    12    13   ar
    27    13    14   ar
    28    14    15   ar
    29    15    16   ar
    30    18    19    1
    31    19    20    1
    32    19    21    1
    33    10     1   ar
    34    16    12   ar
    35     9     4   ar
    36    29    24   ar
@<TRIPOS>MOLECULE
*****
 33 36 0 0 0
SMALL
GASTEIGER

@<TRIPOS>ATOM
      1 C          65.3778   92.3423   11.5089 C.ar    1  UNL1       -0.0004
      2 C          64.8310   92.4499   10.1163 C.ar    1  UNL1       -0.0024
      3 C          63.5698   91.7264    9.7479 C.ar    1  UNL1       -0.0002
      4 C          62.8554   90.8952   10.7720 C.ar    1  UNL1        0.0030
      5 C          61.5942   90.1716   10.4035 C.ar    1  UNL1        0.0369
      6 C          60.8798   89.3404   11.4277 C.ar    1  UNL1        0.1391
      7 C          61.4268   89.2328   12.8203 C.ar    1  UNL1        0.0369
      8 C          62.6880   89.9563   13.1887 C.ar    1  UNL1        0.0031
      9 C          63.4023   90.7875   12.1646 C.ar    1  UNL1       -0.0001
     10 C          64.6635   91.5111   12.5330 C.ar    1  UNL1       -0.0024
     11 C          66.6391   93.0659   11.8774 C.3     1  UNL1        0.1240
     12 N          67.1729   92.9777   13.2765 N.ar    1  UNL1       -0.3045
     13 C          66.8146   93.8854   14.4156 C.ar    1  UNL1        0.0983
     14 C          67.5789   93.4351   15.6252 C.ar    1  UNL1        0.1193
     15 N          68.4096   92.2491   15.2336 N.ar    1  UNL1       -0.2223
     16 C          68.1587   91.9665   13.7820 C.ar    1  UNL1        0.1788
     17 C          68.4645   93.2527   10.0380 C.3     1  UNL1        0.0197
     18 C          67.3665   93.8775   10.8469 C.3     1  UNL1        0.0827
     19 N          66.9961   95.3141   10.6252 N.3     1  UNL1       -0.2696
     20 C          67.4628   96.0270    9.3906 C.3     1  UNL1        0.0897
     21 C          66.1590   96.0376   11.6379 C.3     1  UNL1        0.0897
     22 O          59.6186   88.6169   11.0592 O.3     1  UNL1       -0.4706
     23 C          59.6380   87.5802    9.9752 C.3     1  UNL1        0.2320
     24 C          60.7653   86.5934    9.9012 C.ar    1  UNL1        0.0211
     25 C          61.3787   86.2537    8.5752 C.ar    1  UNL1       -0.0010
     26 C          62.5061   85.2669    8.5011 C.ar    1  UNL1       -0.0041
     27 C          63.0199   84.6199    9.7530 C.ar    1  UNL1       -0.0166
     28 C          62.4064   84.9597   11.0791 C.ar    1  UNL1       -0.0041
     29 C          61.2792   85.9464   11.1531 C.ar    1  UNL1       -0.0010
     30 C          64.1472   83.6331    9.6790 C.3     1  UNL1        0.0679
     31 C          64.1520   82.4313   10.5765 C.2     1  UNL1        0.0547
     32 O          65.0356   82.4038   11.7883 O.co2   1  UNL1       -0.5488
     33 O          63.2733   81.2570   10.2622 O.co2   1  UNL1       -0.5488
@<TRIPOS>UNITY_ATOM_ATTR
32 1
charge -1
@<TRIPOS>BOND
     1    17    18    1
     2    18    11    1
     3    11     1    1
     4     1     2   ar
     5     2     3   ar
     6     3     4   ar
     7     4     5   ar
     8     5     6   ar
     9     6    22    1
    10    22    23    1
    11    23    24    1
    12    24    25   ar
    13    25    26   ar
    14    26    27   ar
    15    27    30    1
    16    30    31    1
    17    31    32   ar
    18    31    33   ar
    19    27    28   ar
    20    28    29   ar
    21     6     7   ar
    22     7     8   ar
    23     8     9   ar
    24     9    10   ar
    25    11    12    1
    26    12    13   ar
    27    13    14   ar
    28    14    15   ar
    29    15    16   ar
    30    18    19    1
    31    19    20    1
    32    19    21    1
    33    10     1   ar
    34    16    12   ar
    35     9     4   ar
    36    29    24   ar
@<TRIPOS>MOLECULE
*****
 33 36 0 0 0
SMALL
GASTEIGER

@<TRIPOS>ATOM
      1 C          62.3807   88.1296   10.7231 C.ar    1  UNL1       -0.0004
      2 C          62.3963   89.4697   10.0495 C.ar    1  UNL1       -0.0024
      3 C          63.0054   90.6513   10.7444 C.ar    1  UNL1       -0.0002
      4 C          63.5988   90.4927   12.1128 C.ar    1  UNL1        0.0030
      5 C          64.2079   91.6744   12.8077 C.ar    1  UNL1        0.0369
      6 C          64.8013   91.5158   14.1762 C.ar    1  UNL1        0.1391
      7 C          64.7856   90.1756   14.8498 C.ar    1  UNL1        0.0369
      8 C          64.1765   88.9941   14.1549 C.ar    1  UNL1        0.0031
      9 C          63.5831   89.1526   12.7865 C.ar    1  UNL1       -0.0001
     10 C          62.9740   87.9711   12.0916 C.ar    1  UNL1       -0.0024
     11 C          61.7716   86.9479   10.0282 C.3     1  UNL1        0.1240
     12 N          60.6821   87.1518    9.0176 N.ar    1  UNL1       -0.3045
     13 C          60.1032   88.4708    8.5991 C.ar    1  UNL1        0.0983
     14 C          59.0435   88.2066    7.5708 C.ar    1  UNL1        0.1193
     15 N          58.9675   86.7244    7.3538 N.ar    1  UNL1       -0.2223
     16 C          59.9801   86.0725    8.2479 C.ar    1  UNL1        0.1788
     17 C          61.8719   84.9147   11.6425 C.3     1  UNL1        0.0197
     18 C          62.2520   85.5625   10.3440 C.3     1  UNL1        0.0827
     19 N          63.1125   84.8249    9.3614 N.3     1  UNL1       -0.2696
     20 C          63.8858   83.6169    9.8006 C.3     1  UNL1        0.0897
     21 C          63.1996   85.2952    7.9398 C.3     1  UNL1        0.0897
     22 O          65.4103   92.6974   14.8711 O.3     1  UNL1       -0.4706
     23 C          66.6465   93.3396   14.3146 C.3     1  UNL1        0.2320
     24 C          66.7522   93.6134   12.8436 C.ar    1  UNL1        0.0211
     25 C          66.2863   94.9272   12.2899 C.ar    1  UNL1       -0.0010
     26 C          66.3919   95.2010   10.8188 C.ar    1  UNL1       -0.0041
     27 C          66.9635   94.1609    9.9015 C.ar    1  UNL1       -0.0166
     28 C          67.4294   92.8469   10.4553 C.ar    1  UNL1       -0.0041
     29 C          67.3237   92.5732   11.9263 C.ar    1  UNL1       -0.0010
     30 C          67.0692   94.4346    8.4305 C.3     1  UNL1        0.0679
     31 C          66.9160   95.8350    7.9154 C.2     1  UNL1        0.0547
     32 O          67.9900   96.8502    8.1721 O.co2   1  UNL1       -0.5488
     33 O          65.6889   96.2202    7.1435 O.co2   1  UNL1       -0.5488
@<TRIPOS>UNITY_ATOM_ATTR
32 1
charge -1
@<TRIPOS>BOND
     1    17    18    1
     2    18    11    1
     3    11     1    1
     4     1     2   ar
     5     2     3   ar
     6     3     4   ar
     7     4     5   ar
     8     5     6   ar
     9     6    22    1
    10    22    23    1
    11    23    24    1
    12    24    25   ar
    13    25    26   ar
    14    26    27   ar
    15    27    30    1
    16    30    31    1
    17    31    32   ar
    18    31    33   ar
    19    27    28   ar
    20    28    29   ar
    21     6     7   ar
    22     7     8   ar
    23     8     9   ar
    24     9    10   ar
    25    11    12    1
    26    12    13   ar
    27    13    14   ar
    28    14    15   ar
    29    15    16   ar
    30    18    19    1
    31    19    20    1
    32    19    21    1
    33    10     1   ar
    34    16    12   ar
    35     9     4   ar
    36    29    24   ar
@<TRIPOS>MOLECULE
*****
 33 36 0 0 0
SMALL
GASTEIGER

@<TRIPOS>ATOM
      1 C          62.9258   84.4772   12.0539 C.ar    1  UNL1       -0.0004
      2 C          63.4217   83.9515   10.7396 C.ar    1  UNL1       -0.0024
      3 C          62.9226   84.5477    9.4569 C.ar    1  UNL1       -0.0002
      4 C          61.9275   85.6696    9.4886 C.ar    1  UNL1        0.0030
      5 C          61.4284   86.2659    8.2058 C.ar    1  UNL1        0.0369
      6 C          60.4332   87.3878    8.2374 C.ar    1  UNL1        0.1391
      7 C          59.9373   87.9135    9.5519 C.ar    1  UNL1        0.0369
      8 C          60.4364   87.3173   10.8346 C.ar    1  UNL1        0.0031
      9 C          61.4315   86.1953   10.8029 C.ar    1  UNL1       -0.0001
     10 C          61.9306   85.5991   12.0856 C.ar    1  UNL1       -0.0024
     11 C          63.4249   83.8809   13.3367 C.3     1  UNL1        0.1240
     12 N          63.1352   82.4449   13.6590 N.ar    1  UNL1       -0.3045
     13 C          61.7798   81.8541   13.9119 C.ar    1  UNL1        0.0983
     14 C          61.9569   80.3916   14.1941 C.ar    1  UNL1        0.1193
     15 N          63.4217   80.0784   14.1156 N.ar    1  UNL1       -0.2223
     16 C          64.1499   81.3475   13.7849 C.ar    1  UNL1        0.1788
     17 C          65.7118   84.7379   14.2231 C.3     1  UNL1        0.0197
     18 C          64.2137   84.7207   14.2971 C.3     1  UNL1        0.0827
     19 N          63.5045   85.5434   15.3317 N.3     1  UNL1       -0.2696
     20 C          63.9477   86.9503   15.6042 C.3     1  UNL1        0.0897
     21 C          62.3521   84.9592   16.0937 C.3     1  UNL1        0.0897
     22 O          59.9341   87.9840    6.9548 O.3     1  UNL1       -0.4706
     23 C          59.1133   89.2393    6.9806 C.3     1  UNL1        0.2320
     24 C          59.3029   90.2814    5.9184 C.ar    1  UNL1        0.0211
     25 C          60.6721   90.5516    5.3689 C.ar    1  UNL1       -0.0010
     26 C          60.8618   91.5937    4.3067 C.ar    1  UNL1       -0.0041
     27 C          59.6821   92.3655    3.7941 C.ar    1  UNL1       -0.0166
     28 C          58.3128   92.0952    4.3437 C.ar    1  UNL1       -0.0041
     29 C          58.1232   91.0531    5.4058 C.ar    1  UNL1       -0.0010
     30 C          59.8717   93.4075    2.7320 C.3     1  UNL1        0.0679
     31 C          59.9496   93.0028    1.2898 C.2     1  UNL1        0.0547
     32 O          58.8129   93.3127    0.3614 O.co2   1  UNL1       -0.5488
     33 O          61.1643   92.2883    0.7759 O.co2   1  UNL1       -0.5488
@<TRIPOS>UNITY_ATOM_ATTR
32 1
charge -1
@<TRIPOS>BOND
     1    17    18    1
     2    18    11    1
     3    11     1    1
     4     1     2   ar
     5     2     3   ar
     6     3     4   ar
     7     4     5   ar
     8     5     6   ar
     9     6    22    1
    10    22    23    1
    11    23    24    1
    12    24    25   ar
    13    25    26   ar
    14    26    27   ar
    15    27    30    1
    16    30    31    1
    17    31    32   ar
    18    31    33   ar
    19    27    28   ar
    20    28    29   ar
    21     6     7   ar
    22     7     8   ar
    23     8     9   ar
    24     9    10   ar
    25    11    12    1
    26    12    13   ar
    27    13    14   ar
    28    14    15   ar
    29    15    16   ar
    30    18    19    1
    31    19    20    1
    32    19    21    1
    33    10     1   ar
    34    16    12   ar
    35     9     4   ar
    36    29    24   ar
@<TRIPOS>MOLECULE
*****
 33 36 0 0 0
SMALL
GASTEIGER

@<TRIPOS>ATOM
      1 C          62.4434   85.9048   11.6364 C.ar    1  UNL1       -0.0004
      2 C          62.8699   87.3031   11.9721 C.ar    1  UNL1       -0.0024
      3 C          62.3496   88.4588   11.1699 C.ar    1  UNL1       -0.0002
      4 C          61.4028   88.2162   10.0320 C.ar    1  UNL1        0.0030
      5 C          60.8825   89.3720    9.2298 C.ar    1  UNL1        0.0369
      6 C          59.9357   89.1294    8.0919 C.ar    1  UNL1        0.1391
      7 C          59.5092   87.7310    7.7563 C.ar    1  UNL1        0.0369
      8 C          60.0295   86.5753    8.5585 C.ar    1  UNL1        0.0031
      9 C          60.9763   86.8179    9.6963 C.ar    1  UNL1       -0.0001
     10 C          61.4966   85.6622   10.4985 C.ar    1  UNL1       -0.0024
     11 C          62.9637   84.7489   12.4386 C.3     1  UNL1        0.1240
     12 N          63.0494   84.8512   13.9327 N.ar    1  UNL1       -0.3045
     13 C          64.1940   85.4267   14.7128 C.ar    1  UNL1        0.0983
     14 C          63.8576   85.3270   16.1712 C.ar    1  UNL1        0.1193
     15 N          62.5050   84.6899   16.2924 N.ar    1  UNL1       -0.2223
     16 C          62.0056   84.3959   14.9089 C.ar    1  UNL1        0.1788
     17 C          63.8948   83.5461   10.3323 C.3     1  UNL1        0.0197
     18 C          63.3982   83.4910   11.7468 C.3     1  UNL1        0.0827
     19 N          63.3362   82.1779   12.4692 N.3     1  UNL1       -0.2696
     20 C          62.0225   81.4720   12.6307 C.3     1  UNL1        0.0897
     21 C          64.5878   81.5708   13.0303 C.3     1  UNL1        0.0897
     22 O          59.4154   90.2851    7.2897 O.3     1  UNL1       -0.4706
     23 C          59.1188   90.1115    5.8296 C.3     1  UNL1        0.2320
     24 C          59.7969   90.9864    4.8173 C.ar    1  UNL1        0.0211
     25 C          59.0025   92.0039    4.0534 C.ar    1  UNL1       -0.0010
     26 C          59.6806   92.8788    3.0410 C.ar    1  UNL1       -0.0041
     27 C          61.1530   92.7362    2.7927 C.ar    1  UNL1       -0.0166
     28 C          61.9474   91.7186    3.5567 C.ar    1  UNL1       -0.0041
     29 C          61.2693   90.8438    4.5690 C.ar    1  UNL1       -0.0010
     30 C          61.8311   93.6111    1.7804 C.3     1  UNL1        0.0679
     31 C          61.7645   93.2623    0.3231 C.2     1  UNL1        0.0547
     32 O          62.4510   94.1316   -0.6883 O.co2   1  UNL1       -0.5488
     33 O          61.0112   92.0442   -0.1229 O.co2   1  UNL1       -0.5488
@<TRIPOS>UNITY_ATOM_ATTR
32 1
charge -1
@<TRIPOS>BOND
     1    17    18    1
     2    18    11    1
     3    11     1    1
     4     1     2   ar
     5     2     3   ar
     6     3     4   ar
     7     4     5   ar
     8     5     6   ar
     9     6    22    1
    10    22    23    1
    11    23    24    1
    12    24    25   ar
    13    25    26   ar
    14    26    27   ar
    15    27    30    1
    16    30    31    1
    17    31    32   ar
    18    31    33   ar
    19    27    28   ar
    20    28    29   ar
    21     6     7   ar
    22     7     8   ar
    23     8     9   ar
    24     9    10   ar
    25    11    12    1
    26    12    13   ar
    27    13    14   ar
    28    14    15   ar
    29    15    16   ar
    30    18    19    1
    31    19    20    1
    32    19    21    1
    33    10     1   ar
    34    16    12   ar
    35     9     4   ar
    36    29    24   ar
@<TRIPOS>MOLECULE
*****
 33 36 0 0 0
SMALL
GASTEIGER

@<TRIPOS>ATOM
      1 C          62.7614   85.7954   11.9396 C.ar    1  UNL1       -0.0004
      2 C          63.1105   87.2088   12.3009 C.ar    1  UNL1       -0.0024
      3 C          62.5405   88.3479   11.5089 C.ar    1  UNL1       -0.0002
      4 C          61.6215   88.0738   10.3555 C.ar    1  UNL1        0.0030
      5 C          61.0516   89.2130    9.5634 C.ar    1  UNL1        0.0369
      6 C          60.1326   88.9388    8.4100 C.ar    1  UNL1        0.1391
      7 C          59.7836   87.5254    8.0487 C.ar    1  UNL1        0.0369
      8 C          60.3535   86.3862    8.8408 C.ar    1  UNL1        0.0031
      9 C          61.2725   86.6604    9.9942 C.ar    1  UNL1       -0.0001
     10 C          61.8425   85.5213   10.7862 C.ar    1  UNL1       -0.0024
     11 C          63.3314   84.6562   12.7317 C.3     1  UNL1        0.1240
     12 N          63.2504   83.2568   12.1976 N.ar    1  UNL1       -0.3045
     13 C          62.5852   82.0932   12.8710 C.ar    1  UNL1        0.0983
     14 C          62.7440   80.8926   11.9859 C.ar    1  UNL1        0.1193
     15 N          63.5075   81.3142   10.7655 N.ar    1  UNL1       -0.2223
     16 C          63.8204   82.7754   10.8963 C.ar    1  UNL1        0.1788
     17 C          65.4736   84.8253   14.1921 C.3     1  UNL1        0.0197
     18 C          63.9823   84.9163   14.0578 C.3     1  UNL1        0.0827
     19 N          63.1420   85.2674   15.2497 N.3     1  UNL1       -0.2696
     20 C          63.5100   86.4421   16.1069 C.3     1  UNL1        0.0897
     21 C          61.9339   84.4439   15.5844 C.3     1  UNL1        0.0897
     22 O          59.5626   90.0780    7.6180 O.3     1  UNL1       -0.4706
     23 C          59.1893   89.8782    6.1789 C.3     1  UNL1        0.2320
     24 C          59.7241   90.8068    5.1294 C.ar    1  UNL1        0.0211
     25 C          58.8010   91.7610    4.4314 C.ar    1  UNL1       -0.0010
     26 C          59.3358   92.6897    3.3818 C.ar    1  UNL1       -0.0041
     27 C          60.7939   92.6642    3.0304 C.ar    1  UNL1       -0.0166
     28 C          61.7170   91.7100    3.7285 C.ar    1  UNL1       -0.0041
     29 C          61.1822   90.7813    4.7780 C.ar    1  UNL1       -0.0010
     30 C          61.3287   93.5928    1.9809 C.3     1  UNL1        0.0679
     31 C          60.7926   93.5313    0.5813 C.2     1  UNL1        0.0547
     32 O          61.2003   92.4113   -0.3294 O.co2   1  UNL1       -0.5488
     33 O          59.8487   94.5897    0.0925 O.co2   1  UNL1       -0.5488
@<TRIPOS>UNITY_ATOM_ATTR
32 1
charge -1
@<TRIPOS>BOND
     1    17    18    1
     2    18    11    1
     3    11     1    1
     4     1     2   ar
     5     2     3   ar
     6     3     4   ar
     7     4     5   ar
     8     5     6   ar
     9     6    22    1
    10    22    23    1
    11    23    24    1
    12    24    25   ar
    13    25    26   ar
    14    26    27   ar
    15    27    30    1
    16    30    31    1
    17    31    32   ar
    18    31    33   ar
    19    27    28   ar
    20    28    29   ar
    21     6     7   ar
    22     7     8   ar
    23     8     9   ar
    24     9    10   ar
    25    11    12    1
    26    12    13   ar
    27    13    14   ar
    28    14    15   ar
    29    15    16   ar
    30    18    19    1
    31    19    20    1
    32    19    21    1
    33    10     1   ar
    34    16    12   ar
    35     9     4   ar
    36    29    24   ar
@<TRIPOS>MOLECULE
*****
 33 36 0 0 0
SMALL
GASTEIGER

@<TRIPOS>ATOM
      1 C          63.2954   89.6561   12.5890 C.ar    1  UNL1       -0.0004
      2 C          62.5562   90.8650   12.0968 C.ar    1  UNL1       -0.0024
      3 C          61.6282   90.7506   10.9240 C.ar    1  UNL1       -0.0002
      4 C          61.4393   89.4273   10.2433 C.ar    1  UNL1        0.0030
      5 C          60.5112   89.3130    9.0704 C.ar    1  UNL1        0.0369
      6 C          60.3223   87.9897    8.3897 C.ar    1  UNL1        0.1391
      7 C          61.0615   86.7808    8.8819 C.ar    1  UNL1        0.0369
      8 C          61.9896   86.8952   10.0548 C.ar    1  UNL1        0.0031
      9 C          62.1785   88.2185   10.7355 C.ar    1  UNL1       -0.0001
     10 C          63.1066   88.3329   11.9083 C.ar    1  UNL1       -0.0024
     11 C          64.2236   89.7705   13.7618 C.3     1  UNL1        0.1240
     12 N          65.2691   90.8458   13.7889 N.ar    1  UNL1       -0.3045
     13 C          65.3082   92.0598   12.9087 C.ar    1  UNL1        0.0983
     14 C          66.5223   92.8601   13.2766 C.ar    1  UNL1        0.1193
     15 N          67.2336   92.1408   14.3842 N.ar    1  UNL1       -0.2223
     16 C          66.4590   90.8958   14.7007 C.ar    1  UNL1        0.1788
     17 C          64.6140   87.4055   14.7640 C.3     1  UNL1        0.0197
     18 C          64.1062   88.8096   14.9076 C.3     1  UNL1        0.0827
     19 N          63.4809   89.2528   16.1971 N.3     1  UNL1       -0.2696
     20 C          62.9763   88.2335   17.1752 C.3     1  UNL1        0.0897
     21 C          63.3603   90.7151   16.5085 C.3     1  UNL1        0.0897
     22 O          59.3942   87.8753    7.2169 O.3     1  UNL1       -0.4706
     23 C          58.4482   88.9947    6.8971 C.3     1  UNL1        0.2320
     24 C          58.8559   90.0687    5.9327 C.ar    1  UNL1        0.0211
     25 C          57.8217   90.9863    5.3509 C.ar    1  UNL1       -0.0010
     26 C          58.2294   92.0604    4.3865 C.ar    1  UNL1       -0.0041
     27 C          59.6713   92.2170    4.0039 C.ar    1  UNL1       -0.0166
     28 C          60.7055   91.2994    4.5857 C.ar    1  UNL1       -0.0041
     29 C          60.2978   90.2253    5.5501 C.ar    1  UNL1       -0.0010
     30 C          60.0790   93.2911    3.0395 C.3     1  UNL1        0.0679
     31 C          60.1893   92.9823    1.5758 C.2     1  UNL1        0.0547
     32 O          59.0156   93.2119    0.6704 O.co2   1  UNL1       -0.5488
     33 O          61.4732   92.4439    1.0175 O.co2   1  UNL1       -0.5488
@<TRIPOS>UNITY_ATOM_ATTR
32 1
charge -1
@<TRIPOS>BOND
     1    17    18    1
     2    18    11    1
     3    11     1    1
     4     1     2   ar
     5     2     3   ar
     6     3     4   ar
     7     4     5   ar
     8     5     6   ar
     9     6    22    1
    10    22    23    1
    11    23    24    1
    12    24    25   ar
    13    25    26   ar
    14    26    27   ar
    15    27    30    1
    16    30    31    1
    17    31    32   ar
    18    31    33   ar
    19    27    28   ar
    20    28    29   ar
    21     6     7   ar
    22     7     8   ar
    23     8     9   ar
    24     9    10   ar
    25    11    12    1
    26    12    13   ar
    27    13    14   ar
    28    14    15   ar
    29    15    16   ar
    30    18    19    1
    31    19    20    1
    32    19    21    1
    33    10     1   ar
    34    16    12   ar
    35     9     4   ar
    36    29    24   ar
@<TRIPOS>MOLECULE
*****
 33 36 0 0 0
SMALL
GASTEIGER

@<TRIPOS>ATOM
      1 C          65.3113   92.3879   11.3974 C.ar    1  UNL1       -0.0004
      2 C          64.7286   92.4334   10.0160 C.ar    1  UNL1       -0.0024
      3 C          63.4692   91.6791    9.7082 C.ar    1  UNL1       -0.0002
      4 C          62.7924   90.8794   10.7817 C.ar    1  UNL1        0.0030
      5 C          61.5329   90.1251   10.4738 C.ar    1  UNL1        0.0369
      6 C          60.8562   89.3254   11.5473 C.ar    1  UNL1        0.1391
      7 C          61.4389   89.2800   12.9288 C.ar    1  UNL1        0.0369
      8 C          62.6983   90.0343   13.2367 C.ar    1  UNL1        0.0031
      9 C          63.3751   90.8340   12.1631 C.ar    1  UNL1       -0.0001
     10 C          64.6345   91.5883   12.4710 C.ar    1  UNL1       -0.0024
     11 C          66.5708   93.1423   11.7054 C.3     1  UNL1        0.1240
     12 N          66.8253   94.4722   11.0600 N.ar    1  UNL1       -0.3045
     13 C          66.3203   95.7987   11.5452 C.ar    1  UNL1        0.0983
     14 C          66.8124   96.8555   10.6012 C.ar    1  UNL1        0.1193
     15 N          67.6215   96.1821    9.5326 N.ar    1  UNL1       -0.2223
     16 C          67.6295   94.7092    9.8162 C.ar    1  UNL1        0.1788
     17 C          68.6801   91.6907   12.1456 C.3     1  UNL1        0.0197
     18 C          67.5757   92.5666   12.6586 C.3     1  UNL1        0.0827
     19 N          67.4763   92.8669   14.1249 N.3     1  UNL1       -0.2696
     20 C          68.2241   92.0243   15.1154 C.3     1  UNL1        0.0897
     21 C          66.6292   94.0096   14.6007 C.3     1  UNL1        0.0897
     22 O          59.5967   88.5711   11.2395 O.3     1  UNL1       -0.4706
     23 C          59.5822   87.5537   10.1372 C.3     1  UNL1        0.2320
     24 C          60.7118   86.5758   10.0043 C.ar    1  UNL1        0.0211
     25 C          61.2600   86.2431    8.6483 C.ar    1  UNL1       -0.0010
     26 C          62.3896   85.2652    8.5153 C.ar    1  UNL1       -0.0041
     27 C          62.9710   84.6200    9.7384 C.ar    1  UNL1       -0.0166
     28 C          62.4227   84.9528   11.0944 C.ar    1  UNL1       -0.0041
     29 C          61.2932   85.9307   11.2273 C.ar    1  UNL1       -0.0010
     30 C          64.1006   83.6421    9.6054 C.3     1  UNL1        0.0679
     31 C          64.1683   82.4471   10.5095 C.2     1  UNL1        0.0547
     32 O          65.0399   82.4784   11.7298 O.co2   1  UNL1       -0.5488
     33 O          63.3644   81.2208   10.1932 O.co2   1  UNL1       -0.5488
@<TRIPOS>UNITY_ATOM_ATTR
32 1
charge -1
@<TRIPOS>BOND
     1    17    18    1
     2    18    11    1
     3    11     1    1
     4     1     2   ar
     5     2     3   ar
     6     3     4   ar
     7     4     5   ar
     8     5     6   ar
     9     6    22    1
    10    22    23    1
    11    23    24    1
    12    24    25   ar
    13    25    26   ar
    14    26    27   ar
    15    27    30    1
    16    30    31    1
    17    31    32   ar
    18    31    33   ar
    19    27    28   ar
    20    28    29   ar
    21     6     7   ar
    22     7     8   ar
    23     8     9   ar
    24     9    10   ar
    25    11    12    1
    26    12    13   ar
    27    13    14   ar
    28    14    15   ar
    29    15    16   ar
    30    18    19    1
    31    19    20    1
    32    19    21    1
    33    10     1   ar
    34    16    12   ar
    35     9     4   ar
    36    29    24   ar
