@<TRIPOS>MOLECULE
*****
 37 41 0 0 0
SMALL
GASTEIGER

@<TRIPOS>ATOM
      1 C          65.1224   91.4381   13.9211 C.3     1  UNL1        0.0760
      2 C          63.7569   90.6026   15.9675 C.ar    1  UNL1        0.1351
      3 C          63.1800   89.4755   16.7717 C.ar    1  UNL1        0.0366
      4 C          63.3917   88.0565   16.3337 C.ar    1  UNL1        0.0030
      5 C          62.8148   86.9294   17.1379 C.ar    1  UNL1        0.0006
      6 C          63.0265   85.5105   16.6999 C.ar    1  UNL1        0.0067
      7 C          63.8151   85.2187   15.4577 C.ar    1  UNL1        0.0346
      8 BR         64.0268   83.7997   15.0197 Br      1  UNL1       -0.0490
      9 C          64.3920   86.3458   14.6535 C.ar    1  UNL1        0.0067
     10 C          64.1803   87.7647   15.0915 C.ar    1  UNL1        0.0004
     11 C          64.7572   88.8920   14.2873 C.ar    1  UNL1       -0.0009
     12 C          64.5455   90.3108   14.7253 C.ar    1  UNL1        0.0181
     13 C          64.5570   92.6937   17.2856 C.3     1  UNL1        0.2525
     14 O          63.5452   92.0216   16.4054 O.3     1  UNL1       -0.4717
     15 C          66.3016   92.2046   14.4426 C.ar    1  UNL1       -0.0157
     16 C          66.3870   93.6867   14.2282 C.ar    1  UNL1       -0.0039
     17 C          67.5662   94.4532   14.7496 C.ar    1  UNL1       -0.0003
     18 C          68.6601   93.7376   15.4854 C.ar    1  UNL1       -0.0000
     19 C          68.5747   92.2554   15.6998 C.ar    1  UNL1       -0.0003
     20 C          67.3955   91.4889   15.1784 C.ar    1  UNL1       -0.0039
     21 C          64.5201   91.7987   12.5956 C.3     1  UNL1        0.1155
     22 O          63.1482   91.5665   13.1558 O.3     1  UNL1       -0.3820
     23 H          62.4876   91.9693   12.5708 H       1  UNL1        0.2107
     24 C          65.8920   92.0309   12.0354 C.ar    1  UNL1       -0.0019
     25 C          67.0000   91.0669   12.3408 C.ar    1  UNL1       -0.0024
     26 C          68.3719   91.2991   11.7806 C.ar    1  UNL1       -0.0006
     27 C          68.6360   92.4953   10.9150 C.ar    1  UNL1       -0.0046
     28 C          67.5281   93.4593   10.6095 C.ar    1  UNL1       -0.0264
     29 C          66.1561   93.2271   11.1697 C.ar    1  UNL1       -0.0279
     30 C          65.2688   94.3415   10.6997 C.3     1  UNL1        0.0261
     31 C          66.0924   95.2624    9.8491 C.3     1  UNL1        0.0093
     32 C          67.4887   94.7171    9.7933 C.3     1  UNL1        0.0264
     33 C          63.9178   92.1593   11.2700 C.3     1  UNL1        0.0491
     34 C          63.3870   91.0833   10.3698 C.3     1  UNL1        0.0750
     35 N          62.3040   90.1659   10.8553 N.3     1  UNL1       -0.2702
     36 C          60.8722   90.6115   10.8208 C.3     1  UNL1        0.0897
     37 C          62.6530   88.8029   11.3752 C.3     1  UNL1        0.0897
@<TRIPOS>BOND
     1    13    14    1
     2    14     2    1
     3     2     3   ar
     4     3     4   ar
     5     4     5   ar
     6     5     6   ar
     7     6     7   ar
     8     7     8    1
     9     7     9   ar
    10     9    10   ar
    11    10    11   ar
    12    11    12   ar
    13     1    12    1
    14     1    15    1
    15    15    16   ar
    16    16    17   ar
    17    17    18   ar
    18    18    19   ar
    19    19    20   ar
    20     1    21    1
    21    21    22    1
    22    21    33    1
    23    33    34    1
    24    34    35    1
    25    35    36    1
    26    35    37    1
    27    21    24    1
    28    24    25   ar
    29    25    26   ar
    30    26    27   ar
    31    27    28   ar
    32    28    29   ar
    33    29    30    1
    34    30    31    1
    35    31    32    1
    36    12     2   ar
    37    20    15   ar
    38    29    24   ar
    39    10     4   ar
    40    32    28    1
    41    22    23    1
@<TRIPOS>MOLECULE
*****
 37 41 0 0 0
SMALL
GASTEIGER

@<TRIPOS>ATOM
      1 C          60.5919   94.0360   -1.7153 C.3     1  UNL1        0.0760
      2 C          59.2530   94.3634   -3.9177 C.ar    1  UNL1        0.1351
      3 C          57.9766   94.7173   -4.6216 C.ar    1  UNL1        0.0366
      4 C          56.7625   95.0978   -3.8270 C.ar    1  UNL1        0.0030
      5 C          55.4861   95.4517   -4.5309 C.ar    1  UNL1        0.0006
      6 C          54.2721   95.8322   -3.7363 C.ar    1  UNL1        0.0067
      7 C          54.3345   95.8587   -2.2378 C.ar    1  UNL1        0.0346
      8 BR         53.1204   96.2392   -1.4432 Br      1  UNL1       -0.0490
      9 C          55.6109   95.5048   -1.5339 C.ar    1  UNL1        0.0067
     10 C          56.8249   95.1243   -2.3285 C.ar    1  UNL1        0.0004
     11 C          58.1014   94.7704   -1.6246 C.ar    1  UNL1       -0.0009
     12 C          59.3154   94.3899   -2.4192 C.ar    1  UNL1        0.0181
     13 C          60.9631   94.8858   -5.8025 C.3     1  UNL1        0.2525
     14 O          60.4671   93.9829   -4.7123 O.3     1  UNL1       -0.4717
     15 C          61.9078   94.4862   -2.2772 C.ar    1  UNL1       -0.0157
     16 C          62.9077   93.4728   -2.7496 C.ar    1  UNL1       -0.0039
     17 C          64.2236   93.9229   -3.3114 C.ar    1  UNL1       -0.0003
     18 C          64.5397   95.3865   -3.4009 C.ar    1  UNL1       -0.0000
     19 C          63.5398   96.4000   -2.9284 C.ar    1  UNL1       -0.0003
     20 C          62.2239   95.9498   -2.3666 C.ar    1  UNL1       -0.0039
     21 C          60.5524   93.2319   -0.4497 C.3     1  UNL1        0.1155
     22 O          59.9240   92.0913   -1.1940 O.3     1  UNL1       -0.3820
     23 H          59.9942   91.2818   -0.6642 H       1  UNL1        0.2107
     24 C          61.1808   94.3726    0.2946 C.ar    1  UNL1       -0.0019
     25 C          60.3773   95.6017    0.6008 C.ar    1  UNL1       -0.0024
     26 C          61.0057   96.7424    1.3450 C.ar    1  UNL1       -0.0006
     27 C          62.4376   96.6540    1.7831 C.ar    1  UNL1       -0.0046
     28 C          63.2410   95.4250    1.4769 C.ar    1  UNL1       -0.0264
     29 C          62.6127   94.2842    0.7326 C.ar    1  UNL1       -0.0279
     30 C          63.6459   93.2083    0.5750 C.3     1  UNL1        0.0261
     31 C          64.9129   93.6841    1.2219 C.3     1  UNL1        0.0093
     32 C          64.6626   95.0540    1.7793 C.3     1  UNL1        0.0264
     33 C          60.5129   92.4279    0.8159 C.3     1  UNL1        0.0491
     34 C          59.7807   92.9526    2.0153 C.3     1  UNL1        0.0750
     35 N          60.1396   92.4625    3.3868 N.3     1  UNL1       -0.2702
     36 C          59.0947   92.4101    4.4618 C.3     1  UNL1        0.0897
     37 C          61.5433   92.0248    3.6834 C.3     1  UNL1        0.0897
@<TRIPOS>BOND
     1    13    14    1
     2    14     2    1
     3     2     3   ar
     4     3     4   ar
     5     4     5   ar
     6     5     6   ar
     7     6     7   ar
     8     7     8    1
     9     7     9   ar
    10     9    10   ar
    11    10    11   ar
    12    11    12   ar
    13     1    12    1
    14     1    15    1
    15    15    16   ar
    16    16    17   ar
    17    17    18   ar
    18    18    19   ar
    19    19    20   ar
    20     1    21    1
    21    21    22    1
    22    21    33    1
    23    33    34    1
    24    34    35    1
    25    35    36    1
    26    35    37    1
    27    21    24    1
    28    24    25   ar
    29    25    26   ar
    30    26    27   ar
    31    27    28   ar
    32    28    29   ar
    33    29    30    1
    34    30    31    1
    35    31    32    1
    36    12     2   ar
    37    20    15   ar
    38    29    24   ar
    39    10     4   ar
    40    32    28    1
    41    22    23    1
@<TRIPOS>MOLECULE
*****
 37 41 0 0 0
SMALL
GASTEIGER

@<TRIPOS>ATOM
      1 C          59.1372   94.5407   -3.1217 C.3     1  UNL1        0.0760
      2 C          59.9136   95.9720   -5.1463 C.ar    1  UNL1        0.1351
      3 C          60.9163   96.2627   -6.2233 C.ar    1  UNL1        0.0366
      4 C          62.1456   95.4128   -6.3528 C.ar    1  UNL1        0.0030
      5 C          63.1483   95.7034   -7.4299 C.ar    1  UNL1        0.0006
      6 C          64.3774   94.8535   -7.5594 C.ar    1  UNL1        0.0067
      7 C          64.6038   93.7129   -6.6119 C.ar    1  UNL1        0.0346
      8 BR         65.8331   92.8630   -6.7414 Br      1  UNL1       -0.0490
      9 C          63.6011   93.4222   -5.5349 C.ar    1  UNL1        0.0067
     10 C          62.3720   94.2722   -5.4053 C.ar    1  UNL1        0.0004
     11 C          61.3692   93.9815   -4.3283 C.ar    1  UNL1       -0.0009
     12 C          60.1400   94.8314   -4.1988 C.ar    1  UNL1        0.0181
     13 C          57.4794   96.5317   -5.8616 C.3     1  UNL1        0.2525
     14 O          58.6844   96.8219   -5.0167 O.3     1  UNL1       -0.4717
     15 C          58.1155   93.4605   -3.3200 C.ar    1  UNL1       -0.0157
     16 C          57.8900   92.8831   -4.6859 C.ar    1  UNL1       -0.0039
     17 C          56.8683   91.8029   -4.8841 C.ar    1  UNL1       -0.0003
     18 C          56.0721   91.3001   -3.7166 C.ar    1  UNL1       -0.0000
     19 C          56.2977   91.8776   -2.3506 C.ar    1  UNL1       -0.0003
     20 C          57.3193   92.9578   -2.1523 C.ar    1  UNL1       -0.0039
     21 C          59.1561   95.3302   -1.8465 C.3     1  UNL1        0.1155
     22 O          57.9077   96.0454   -2.2708 O.3     1  UNL1       -0.3820
     23 H          57.5100   96.4848   -1.5029 H       1  UNL1        0.2107
     24 C          60.4045   94.6151   -1.4223 C.ar    1  UNL1       -0.0019
     25 C          60.3306   93.1935   -0.9493 C.ar    1  UNL1       -0.0024
     26 C          61.5790   92.4783   -0.5251 C.ar    1  UNL1       -0.0006
     27 C          62.9013   93.1847   -0.5738 C.ar    1  UNL1       -0.0046
     28 C          62.9753   94.6063   -1.0466 C.ar    1  UNL1       -0.0264
     29 C          61.7269   95.3215   -1.4709 C.ar    1  UNL1       -0.0279
     30 C          62.1078   96.7110   -1.8884 C.3     1  UNL1        0.0261
     31 C          63.5916   96.8545   -1.7222 C.3     1  UNL1        0.0093
     32 C          64.1278   95.5538   -1.2019 C.3     1  UNL1        0.0264
     33 C          59.1750   96.1198   -0.5713 C.3     1  UNL1        0.0491
     34 C          58.9782   95.4254    0.7437 C.3     1  UNL1        0.0750
     35 N          60.0586   95.4680    1.7835 N.3     1  UNL1       -0.2702
     36 C          60.7755   96.7545    2.0678 C.3     1  UNL1        0.0897
     37 C          60.4220   94.2241    2.5388 C.3     1  UNL1        0.0897
@<TRIPOS>BOND
     1    13    14    1
     2    14     2    1
     3     2     3   ar
     4     3     4   ar
     5     4     5   ar
     6     5     6   ar
     7     6     7   ar
     8     7     8    1
     9     7     9   ar
    10     9    10   ar
    11    10    11   ar
    12    11    12   ar
    13     1    12    1
    14     1    15    1
    15    15    16   ar
    16    16    17   ar
    17    17    18   ar
    18    18    19   ar
    19    19    20   ar
    20     1    21    1
    21    21    22    1
    22    21    33    1
    23    33    34    1
    24    34    35    1
    25    35    36    1
    26    35    37    1
    27    21    24    1
    28    24    25   ar
    29    25    26   ar
    30    26    27   ar
    31    27    28   ar
    32    28    29   ar
    33    29    30    1
    34    30    31    1
    35    31    32    1
    36    12     2   ar
    37    20    15   ar
    38    29    24   ar
    39    10     4   ar
    40    32    28    1
    41    22    23    1
@<TRIPOS>MOLECULE
*****
 37 41 0 0 0
SMALL
GASTEIGER

@<TRIPOS>ATOM
      1 C          60.5940   93.7391   -1.2723 C.3     1  UNL1        0.0760
      2 C          58.1762   94.6133   -1.6468 C.ar    1  UNL1        0.1351
      3 C          56.9147   94.6377   -2.4580 C.ar    1  UNL1        0.0366
      4 C          56.8096   93.8124   -3.7062 C.ar    1  UNL1        0.0030
      5 C          55.5481   93.8369   -4.5174 C.ar    1  UNL1        0.0006
      6 C          55.4431   93.0116   -5.7655 C.ar    1  UNL1        0.0067
      7 C          56.5994   92.1619   -6.2024 C.ar    1  UNL1        0.0346
      8 BR         56.4942   91.3366   -7.4506 Br      1  UNL1       -0.0490
      9 C          57.8608   92.1374   -5.3912 C.ar    1  UNL1        0.0067
     10 C          57.9659   92.9627   -4.1431 C.ar    1  UNL1        0.0004
     11 C          59.2274   92.9383   -3.3318 C.ar    1  UNL1       -0.0009
     12 C          59.3325   93.7635   -2.0836 C.ar    1  UNL1        0.0181
     13 C          57.7896   96.8556   -0.3928 C.3     1  UNL1        0.2525
     14 O          58.2813   95.4386   -0.3986 O.3     1  UNL1       -0.4717
     15 C          61.8472   94.3590   -1.8156 C.ar    1  UNL1       -0.0157
     16 C          61.9682   95.8514   -1.9045 C.ar    1  UNL1       -0.0039
     17 C          63.2215   96.4712   -2.4478 C.ar    1  UNL1       -0.0003
     18 C          64.3537   95.5986   -2.9023 C.ar    1  UNL1       -0.0000
     19 C          64.2327   94.1061   -2.8135 C.ar    1  UNL1       -0.0003
     20 C          62.9795   93.4863   -2.2701 C.ar    1  UNL1       -0.0039
     21 C          60.6022   93.0949    0.0822 C.3     1  UNL1        0.1155
     22 O          59.8951   91.8986   -0.4825 O.3     1  UNL1       -0.3820
     23 H          59.9698   91.1564    0.1376 H       1  UNL1        0.2107
     24 C          61.3093   94.2911    0.6469 C.ar    1  UNL1       -0.0019
     25 C          60.5507   95.5601    0.9008 C.ar    1  UNL1       -0.0024
     26 C          61.2578   96.7564    1.4654 C.ar    1  UNL1       -0.0006
     27 C          62.7234   96.6838    1.7763 C.ar    1  UNL1       -0.0046
     28 C          63.4820   95.4149    1.5225 C.ar    1  UNL1       -0.0264
     29 C          62.7749   94.2185    0.9578 C.ar    1  UNL1       -0.0279
     30 C          63.7777   93.1122    0.8146 C.3     1  UNL1        0.0261
     31 C          65.1045   93.6248    1.2908 C.3     1  UNL1        0.0093
     32 C          64.9217   95.0479    1.7283 C.3     1  UNL1        0.0264
     33 C          60.6104   92.4506    1.4368 C.3     1  UNL1        0.0491
     34 C          59.6014   92.8604    2.4683 C.3     1  UNL1        0.0750
     35 N          59.5694   92.1724    3.8009 N.3     1  UNL1       -0.2702
     36 C          60.8445   91.6908    4.4271 C.3     1  UNL1        0.0897
     37 C          58.2623   91.9661    4.5072 C.3     1  UNL1        0.0897
@<TRIPOS>BOND
     1    13    14    1
     2    14     2    1
     3     2     3   ar
     4     3     4   ar
     5     4     5   ar
     6     5     6   ar
     7     6     7   ar
     8     7     8    1
     9     7     9   ar
    10     9    10   ar
    11    10    11   ar
    12    11    12   ar
    13     1    12    1
    14     1    15    1
    15    15    16   ar
    16    16    17   ar
    17    17    18   ar
    18    18    19   ar
    19    19    20   ar
    20     1    21    1
    21    21    22    1
    22    21    33    1
    23    33    34    1
    24    34    35    1
    25    35    36    1
    26    35    37    1
    27    21    24    1
    28    24    25   ar
    29    25    26   ar
    30    26    27   ar
    31    27    28   ar
    32    28    29   ar
    33    29    30    1
    34    30    31    1
    35    31    32    1
    36    12     2   ar
    37    20    15   ar
    38    29    24   ar
    39    10     4   ar
    40    32    28    1
    41    22    23    1
@<TRIPOS>MOLECULE
*****
 37 41 0 0 0
SMALL
GASTEIGER

@<TRIPOS>ATOM
      1 C          62.8426   89.5807   12.7589 C.3     1  UNL1        0.0760
      2 C          64.1302   91.5277   13.8997 C.ar    1  UNL1        0.1351
      3 C          65.0531   92.7063   13.8050 C.ar    1  UNL1        0.0366
      4 C          65.6116   93.1166   12.4746 C.ar    1  UNL1        0.0030
      5 C          66.5345   94.2952   12.3798 C.ar    1  UNL1        0.0006
      6 C          67.0929   94.7054   11.0495 C.ar    1  UNL1        0.0067
      7 C          66.7283   93.9371    9.8139 C.ar    1  UNL1        0.0346
      8 BR         67.2867   94.3474    8.4835 Br      1  UNL1       -0.0490
      9 C          65.8054   92.7585    9.9086 C.ar    1  UNL1        0.0067
     10 C          65.2470   92.3482   11.2389 C.ar    1  UNL1        0.0004
     11 C          64.3240   91.1696   11.3337 C.ar    1  UNL1       -0.0009
     12 C          63.7656   90.7593   12.6641 C.ar    1  UNL1        0.0181
     13 C          64.1811   91.6462   16.4946 C.3     1  UNL1        0.2525
     14 O          63.5718   91.1174   15.2301 O.3     1  UNL1       -0.4717
     15 C          61.3849   89.7425   12.4445 C.ar    1  UNL1       -0.0157
     16 C          60.9531   90.6642   11.3427 C.ar    1  UNL1       -0.0039
     17 C          59.4953   90.8260   11.0283 C.ar    1  UNL1       -0.0003
     18 C          58.4694   90.0661   11.8156 C.ar    1  UNL1       -0.0000
     19 C          58.9012   89.1442   12.9174 C.ar    1  UNL1       -0.0003
     20 C          60.3589   88.9824   13.2318 C.ar    1  UNL1       -0.0039
     21 C          63.3773   88.2403   13.1681 C.3     1  UNL1        0.1155
     22 O          63.8065   88.8139   14.4859 O.3     1  UNL1       -0.3820
     23 H          63.9882   88.0927   15.1086 H       1  UNL1        0.2107
     24 C          62.9481   87.6668   11.8502 C.ar    1  UNL1       -0.0019
     25 C          62.6897   88.5756   10.6851 C.ar    1  UNL1       -0.0024
     26 C          62.2605   88.0021    9.3673 C.ar    1  UNL1       -0.0006
     27 C          62.0898   86.5197    9.2144 C.ar    1  UNL1       -0.0046
     28 C          62.3482   85.6109   10.3793 C.ar    1  UNL1       -0.0264
     29 C          62.7774   86.1844   11.6973 C.ar    1  UNL1       -0.0279
     30 C          62.9581   85.0486   12.6603 C.3     1  UNL1        0.0261
     31 C          62.6407   83.7732   11.9375 C.3     1  UNL1        0.0093
     32 C          62.2637   84.1207   10.5279 C.3     1  UNL1        0.0264
     33 C          63.9121   86.9000   13.5772 C.3     1  UNL1        0.0491
     34 C          64.3800   86.6771   14.9848 C.3     1  UNL1        0.0750
     35 N          63.4063   86.2390   16.0384 N.3     1  UNL1       -0.2702
     36 C          62.8288   84.8553   15.9972 C.3     1  UNL1        0.0897
     37 C          63.0101   87.1847   17.1332 C.3     1  UNL1        0.0897
@<TRIPOS>BOND
     1    13    14    1
     2    14     2    1
     3     2     3   ar
     4     3     4   ar
     5     4     5   ar
     6     5     6   ar
     7     6     7   ar
     8     7     8    1
     9     7     9   ar
    10     9    10   ar
    11    10    11   ar
    12    11    12   ar
    13     1    12    1
    14     1    15    1
    15    15    16   ar
    16    16    17   ar
    17    17    18   ar
    18    18    19   ar
    19    19    20   ar
    20     1    21    1
    21    21    22    1
    22    21    33    1
    23    33    34    1
    24    34    35    1
    25    35    36    1
    26    35    37    1
    27    21    24    1
    28    24    25   ar
    29    25    26   ar
    30    26    27   ar
    31    27    28   ar
    32    28    29   ar
    33    29    30    1
    34    30    31    1
    35    31    32    1
    36    12     2   ar
    37    20    15   ar
    38    29    24   ar
    39    10     4   ar
    40    32    28    1
    41    22    23    1
@<TRIPOS>MOLECULE
*****
 37 41 0 0 0
SMALL
GASTEIGER

@<TRIPOS>ATOM
      1 C          63.1297   88.7754   12.0679 C.3     1  UNL1        0.0760
      2 C          60.7540   88.7504   11.0166 C.ar    1  UNL1        0.1351
      3 C          59.7943   88.2313    9.9873 C.ar    1  UNL1        0.0366
      4 C          60.2507   87.2179    8.9799 C.ar    1  UNL1        0.0030
      5 C          59.2911   86.6988    7.9506 C.ar    1  UNL1        0.0006
      6 C          59.7475   85.6854    6.9432 C.ar    1  UNL1        0.0067
      7 C          61.1636   85.1913    6.9652 C.ar    1  UNL1        0.0346
      8 BR         61.6200   84.1779    5.9577 Br      1  UNL1       -0.0490
      9 C          62.1232   85.7104    7.9945 C.ar    1  UNL1        0.0067
     10 C          61.6668   86.7237    9.0018 C.ar    1  UNL1        0.0004
     11 C          62.6265   87.2429   10.0312 C.ar    1  UNL1       -0.0009
     12 C          62.1701   88.2562   11.0385 C.ar    1  UNL1        0.0181
     13 C          59.2530   90.7738   11.6515 C.3     1  UNL1        0.2525
     14 O          60.2976   89.7638   12.0240 O.3     1  UNL1       -0.4717
     15 C          63.6757   87.8529   13.1171 C.ar    1  UNL1       -0.0157
     16 C          63.2297   86.4215   13.1629 C.ar    1  UNL1       -0.0039
     17 C          63.7756   85.4989   14.2121 C.ar    1  UNL1       -0.0003
     18 C          64.7676   86.0078   15.2156 C.ar    1  UNL1       -0.0000
     19 C          65.2137   87.4392   15.1699 C.ar    1  UNL1       -0.0003
     20 C          64.6677   88.3618   14.1207 C.ar    1  UNL1       -0.0039
     21 C          63.5434   90.2171   12.0480 C.3     1  UNL1        0.1155
     22 O          63.6880   90.1550   10.5563 O.3     1  UNL1       -0.3820
     23 H          63.7205   91.0554   10.1969 H       1  UNL1        0.2107
     24 C          63.3989   90.2791   13.5397 C.ar    1  UNL1       -0.0019
     25 C          62.2663   89.5631   14.2140 C.ar    1  UNL1       -0.0024
     26 C          62.1217   89.6251   15.7057 C.ar    1  UNL1       -0.0006
     27 C          63.1098   90.4032   16.5232 C.ar    1  UNL1       -0.0046
     28 C          64.2424   91.1192   15.8491 C.ar    1  UNL1       -0.0264
     29 C          64.3870   91.0571   14.3573 C.ar    1  UNL1       -0.0279
     30 C          65.5961   91.8583   13.9750 C.3     1  UNL1        0.0261
     31 C          66.1988   92.4155   15.2305 C.3     1  UNL1        0.0093
     32 C          65.3622   91.9587   16.3887 C.3     1  UNL1        0.0264
     33 C          63.9571   91.6587   12.0281 C.3     1  UNL1        0.0491
     34 C          64.4336   92.2847   10.7510 C.3     1  UNL1        0.0750
     35 N          65.7222   93.0522   10.7271 N.3     1  UNL1       -0.2702
     36 C          67.0132   92.3416   10.4472 C.3     1  UNL1        0.0897
     37 C          65.7198   94.5302   10.9831 C.3     1  UNL1        0.0897
@<TRIPOS>BOND
     1    13    14    1
     2    14     2    1
     3     2     3   ar
     4     3     4   ar
     5     4     5   ar
     6     5     6   ar
     7     6     7   ar
     8     7     8    1
     9     7     9   ar
    10     9    10   ar
    11    10    11   ar
    12    11    12   ar
    13     1    12    1
    14     1    15    1
    15    15    16   ar
    16    16    17   ar
    17    17    18   ar
    18    18    19   ar
    19    19    20   ar
    20     1    21    1
    21    21    22    1
    22    21    33    1
    23    33    34    1
    24    34    35    1
    25    35    36    1
    26    35    37    1
    27    21    24    1
    28    24    25   ar
    29    25    26   ar
    30    26    27   ar
    31    27    28   ar
    32    28    29   ar
    33    29    30    1
    34    30    31    1
    35    31    32    1
    36    12     2   ar
    37    20    15   ar
    38    29    24   ar
    39    10     4   ar
    40    32    28    1
    41    22    23    1
@<TRIPOS>MOLECULE
*****
 37 41 0 0 0
SMALL
GASTEIGER

@<TRIPOS>ATOM
      1 C          62.1362   88.9939   11.9388 C.3     1  UNL1        0.0760
      2 C          63.6876   90.2948   13.5670 C.ar    1  UNL1        0.1351
      3 C          64.7415   91.3354   13.8042 C.ar    1  UNL1        0.0366
      4 C          65.2979   92.1160   12.6504 C.ar    1  UNL1        0.0030
      5 C          66.3518   93.1566   12.8876 C.ar    1  UNL1        0.0006
      6 C          66.9082   93.9371   11.7338 C.ar    1  UNL1        0.0067
      7 C          66.4107   93.6769   10.3428 C.ar    1  UNL1        0.0346
      8 BR         66.9672   94.4574    9.1890 Br      1  UNL1       -0.0490
      9 C          65.3568   92.6363   10.1056 C.ar    1  UNL1        0.0067
     10 C          64.8005   91.8558   11.2594 C.ar    1  UNL1        0.0004
     11 C          63.7465   90.8151   11.0222 C.ar    1  UNL1       -0.0009
     12 C          63.1901   90.0346   12.1760 C.ar    1  UNL1        0.0181
     13 C          63.4334   89.9373   16.1278 C.3     1  UNL1        0.2525
     14 O          63.1311   89.5142   14.7208 O.3     1  UNL1       -0.4717
     15 C          60.6849   89.3656   12.0136 C.ar    1  UNL1       -0.0157
     16 C          60.2304   90.7134   11.5375 C.ar    1  UNL1       -0.0039
     17 C          58.7791   91.0852   11.6122 C.ar    1  UNL1       -0.0003
     18 C          57.7823   90.1090   12.1631 C.ar    1  UNL1       -0.0000
     19 C          58.2367   88.7611   12.6392 C.ar    1  UNL1       -0.0003
     20 C          59.6880   88.3894   12.5645 C.ar    1  UNL1       -0.0039
     21 C          62.5335   87.5815   11.6269 C.3     1  UNL1        0.1155
     22 O          63.2766   87.5034   12.9276 O.3     1  UNL1       -0.3820
     23 H          63.4611   86.5749   13.1392 H       1  UNL1        0.2107
     24 C          61.7905   87.6597   10.3263 C.ar    1  UNL1       -0.0019
     25 C          60.8535   88.8017   10.0652 C.ar    1  UNL1       -0.0024
     26 C          60.1104   88.8798    8.7646 C.ar    1  UNL1       -0.0006
     27 C          60.3043   87.8161    7.7250 C.ar    1  UNL1       -0.0046
     28 C          61.2412   86.6742    7.9860 C.ar    1  UNL1       -0.0264
     29 C          61.9843   86.5959    9.2867 C.ar    1  UNL1       -0.0279
     30 C          62.8349   85.3607    9.2610 C.3     1  UNL1        0.0261
     31 C          62.6174   84.6754    7.9446 C.3     1  UNL1        0.0093
     32 C          61.6325   85.4872    7.1565 C.3     1  UNL1        0.0264
     33 C          62.9309   86.1692   11.3150 C.3     1  UNL1        0.0491
     34 C          62.7732   85.0988   12.3540 C.3     1  UNL1        0.0750
     35 N          63.9364   84.2204   12.7084 N.3     1  UNL1       -0.2702
     36 C          64.6448   84.4060   14.0175 C.3     1  UNL1        0.0897
     37 C          64.3910   83.1565   11.7538 C.3     1  UNL1        0.0897
@<TRIPOS>BOND
     1    13    14    1
     2    14     2    1
     3     2     3   ar
     4     3     4   ar
     5     4     5   ar
     6     5     6   ar
     7     6     7   ar
     8     7     8    1
     9     7     9   ar
    10     9    10   ar
    11    10    11   ar
    12    11    12   ar
    13     1    12    1
    14     1    15    1
    15    15    16   ar
    16    16    17   ar
    17    17    18   ar
    18    18    19   ar
    19    19    20   ar
    20     1    21    1
    21    21    22    1
    22    21    33    1
    23    33    34    1
    24    34    35    1
    25    35    36    1
    26    35    37    1
    27    21    24    1
    28    24    25   ar
    29    25    26   ar
    30    26    27   ar
    31    27    28   ar
    32    28    29   ar
    33    29    30    1
    34    30    31    1
    35    31    32    1
    36    12     2   ar
    37    20    15   ar
    38    29    24   ar
    39    10     4   ar
    40    32    28    1
    41    22    23    1
@<TRIPOS>MOLECULE
*****
 37 41 0 0 0
SMALL
GASTEIGER

@<TRIPOS>ATOM
      1 C          61.9583   88.5327   11.1315 C.3     1  UNL1        0.0760
      2 C          63.6196   89.3997   12.9310 C.ar    1  UNL1        0.1351
      3 C          64.6331   90.4080   13.3850 C.ar    1  UNL1        0.0366
      4 C          64.9988   91.5576   12.4935 C.ar    1  UNL1        0.0030
      5 C          66.0123   92.5659   12.9475 C.ar    1  UNL1        0.0006
      6 C          66.3780   93.7154   12.0560 C.ar    1  UNL1        0.0067
      7 C          65.7302   93.8567   10.7105 C.ar    1  UNL1        0.0346
      8 BR         66.0960   95.0063    9.8190 Br      1  UNL1       -0.0490
      9 C          64.7167   92.8484   10.2565 C.ar    1  UNL1        0.0067
     10 C          64.3510   91.6989   11.1480 C.ar    1  UNL1        0.0004
     11 C          63.3375   90.6905   10.6940 C.ar    1  UNL1       -0.0009
     12 C          62.9718   89.5410   11.5855 C.ar    1  UNL1        0.0181
     13 C          64.3271   87.4871   14.5408 C.3     1  UNL1        0.2525
     14 O          63.2539   88.2501   13.8225 O.3     1  UNL1       -0.4717
     15 C          62.4090   87.2167   10.5701 C.ar    1  UNL1       -0.0157
     16 C          62.8815   87.1299    9.1491 C.ar    1  UNL1       -0.0039
     17 C          63.3322   85.8140    8.5877 C.ar    1  UNL1       -0.0003
     18 C          63.3103   84.5849    9.4472 C.ar    1  UNL1       -0.0000
     19 C          62.8378   84.6717   10.8682 C.ar    1  UNL1       -0.0003
     20 C          62.3871   85.9876   11.4297 C.ar    1  UNL1       -0.0039
     21 C          60.4941   88.8403   11.2390 C.3     1  UNL1        0.1155
     22 O          60.7459   89.5942   12.5110 O.3     1  UNL1       -0.3820
     23 H          59.9768   90.1487   12.7158 H       1  UNL1        0.2107
     24 C          60.2424   88.0863    9.9669 C.ar    1  UNL1       -0.0019
     25 C          60.1758   86.5878    9.9838 C.ar    1  UNL1       -0.0024
     26 C          59.9241   85.8339    8.7118 C.ar    1  UNL1       -0.0006
     27 C          59.7388   86.5783    7.4228 C.ar    1  UNL1       -0.0046
     28 C          59.8053   88.0767    7.4058 C.ar    1  UNL1       -0.0264
     29 C          60.0571   88.8307    8.6779 C.ar    1  UNL1       -0.0279
     30 C          60.0697   90.2953    8.3539 C.3     1  UNL1        0.0261
     31 C          59.8257   90.4464    6.8817 C.3     1  UNL1        0.0093
     32 C          59.6624   89.0753    6.2957 C.3     1  UNL1        0.0264
     33 C          59.0300   89.1479   11.3464 C.3     1  UNL1        0.0491
     34 C          58.4650   89.6656   12.6359 C.3     1  UNL1        0.0750
     35 N          57.9893   88.7052   13.6855 N.3     1  UNL1       -0.2702
     36 C          56.6778   87.9973   13.5153 C.3     1  UNL1        0.0897
     37 C          58.8251   88.4528   14.9052 C.3     1  UNL1        0.0897
@<TRIPOS>BOND
     1    13    14    1
     2    14     2    1
     3     2     3   ar
     4     3     4   ar
     5     4     5   ar
     6     5     6   ar
     7     6     7   ar
     8     7     8    1
     9     7     9   ar
    10     9    10   ar
    11    10    11   ar
    12    11    12   ar
    13     1    12    1
    14     1    15    1
    15    15    16   ar
    16    16    17   ar
    17    17    18   ar
    18    18    19   ar
    19    19    20   ar
    20     1    21    1
    21    21    22    1
    22    21    33    1
    23    33    34    1
    24    34    35    1
    25    35    36    1
    26    35    37    1
    27    21    24    1
    28    24    25   ar
    29    25    26   ar
    30    26    27   ar
    31    27    28   ar
    32    28    29   ar
    33    29    30    1
    34    30    31    1
    35    31    32    1
    36    12     2   ar
    37    20    15   ar
    38    29    24   ar
    39    10     4   ar
    40    32    28    1
    41    22    23    1
@<TRIPOS>MOLECULE
*****
 37 41 0 0 0
SMALL
GASTEIGER

@<TRIPOS>ATOM
      1 C          62.5788   86.7774   12.3080 C.3     1  UNL1        0.0760
      2 C          62.8470   89.0856   11.1458 C.ar    1  UNL1        0.1351
      3 C          63.4043   90.4781   11.1360 C.ar    1  UNL1        0.0366
      4 C          64.2509   90.9552   12.2788 C.ar    1  UNL1        0.0030
      5 C          64.8082   92.3478   12.2690 C.ar    1  UNL1        0.0006
      6 C          65.6548   92.8248   13.4118 C.ar    1  UNL1        0.0067
      7 C          65.9439   91.9092   14.5642 C.ar    1  UNL1        0.0346
      8 BR         66.7905   92.3863   15.7070 Br      1  UNL1       -0.0490
      9 C          65.3866   90.5167   14.5740 C.ar    1  UNL1        0.0067
     10 C          64.5401   90.0397   13.4313 C.ar    1  UNL1        0.0004
     11 C          63.9827   88.6471   13.4410 C.ar    1  UNL1       -0.0009
     12 C          63.1362   88.1701   12.2982 C.ar    1  UNL1        0.0181
     13 C          61.1977   89.5912    9.2030 C.3     1  UNL1        0.2525
     14 O          62.0004   88.6085   10.0030 O.3     1  UNL1       -0.4717
     15 C          63.0968   85.7691   13.2903 C.ar    1  UNL1       -0.0157
     16 C          64.4970   85.2470   13.1613 C.ar    1  UNL1       -0.0039
     17 C          65.0149   84.2387   14.1436 C.ar    1  UNL1       -0.0003
     18 C          64.1327   83.7525   15.2551 C.ar    1  UNL1       -0.0000
     19 C          62.7324   84.2747   15.3842 C.ar    1  UNL1       -0.0003
     20 C          62.2144   85.2830   14.4018 C.ar    1  UNL1       -0.0039
     21 C          61.5035   86.3932   11.3353 C.3     1  UNL1        0.1155
     22 O          60.5802   87.3972   11.9594 O.3     1  UNL1       -0.3820
     23 H          59.8335   87.5642   11.3632 H       1  UNL1        0.2107
     24 C          62.4268   85.3892   10.7112 C.ar    1  UNL1       -0.0019
     25 C          63.2751   85.7787    9.5370 C.ar    1  UNL1       -0.0024
     26 C          64.1984   84.7747    8.9129 C.ar    1  UNL1       -0.0006
     27 C          64.2734   83.3812    9.4630 C.ar    1  UNL1       -0.0046
     28 C          63.4251   82.9917   10.6371 C.ar    1  UNL1       -0.0264
     29 C          62.5018   83.9957   11.2613 C.ar    1  UNL1       -0.0279
     30 C          61.7919   83.3269   12.4009 C.3     1  UNL1        0.0261
     31 C          62.2764   81.9096   12.4811 C.3     1  UNL1        0.0093
     32 C          63.2858   81.7025   11.3910 C.3     1  UNL1        0.0264
     33 C          60.4282   86.0089   10.3627 C.3     1  UNL1        0.0491
     34 C          59.7243   87.0673    9.5662 C.3     1  UNL1        0.0750
     35 N          59.6067   86.9312    8.0769 N.3     1  UNL1       -0.2702
     36 C          60.2209   85.7531    7.3807 C.3     1  UNL1        0.0897
     37 C          58.8748   87.9731    7.2841 C.3     1  UNL1        0.0897
@<TRIPOS>BOND
     1    13    14    1
     2    14     2    1
     3     2     3   ar
     4     3     4   ar
     5     4     5   ar
     6     5     6   ar
     7     6     7   ar
     8     7     8    1
     9     7     9   ar
    10     9    10   ar
    11    10    11   ar
    12    11    12   ar
    13     1    12    1
    14     1    15    1
    15    15    16   ar
    16    16    17   ar
    17    17    18   ar
    18    18    19   ar
    19    19    20   ar
    20     1    21    1
    21    21    22    1
    22    21    33    1
    23    33    34    1
    24    34    35    1
    25    35    36    1
    26    35    37    1
    27    21    24    1
    28    24    25   ar
    29    25    26   ar
    30    26    27   ar
    31    27    28   ar
    32    28    29   ar
    33    29    30    1
    34    30    31    1
    35    31    32    1
    36    12     2   ar
    37    20    15   ar
    38    29    24   ar
    39    10     4   ar
    40    32    28    1
    41    22    23    1
