@<TRIPOS>MOLECULE
*****
 26 28 0 0 0
SMALL
GASTEIGER

@<TRIPOS>ATOM
      1 C          63.7821   87.1206   15.2396 C.ar    1  UNL1        0.1112
      2 C          64.2375   88.3979   14.5985 C.ar    1  UNL1        0.0263
      3 C          63.8884   89.5291   15.5198 C.ar    1  UNL1        0.0576
      4 C          63.2172   88.9507   16.7302 C.ar    1  UNL1        0.0757
      5 N          63.1515   87.4622   16.5570 N.ar    1  UNL1       -0.3484
      6 H          62.7628   86.8219   17.1959 H       1  UNL1        0.1661
      7 O          65.2933   85.1297   14.5306 O.2     1  UNL1       -0.2682
      8 C          63.9311   85.7433   14.6642 C.2     1  UNL1        0.2652
      9 N          62.7180   84.9798   14.2224 N.am    1  UNL1       -0.2780
     10 H          61.8239   85.3825   14.3101 H       1  UNL1        0.1553
     11 C          62.8670   83.6025   13.6470 C.ar    1  UNL1        0.0700
     12 C          62.9038   83.4110   12.1598 C.ar    1  UNL1        0.0179
     13 C          63.0528   82.0338   11.5844 C.ar    1  UNL1        0.0220
     14 C          63.1650   80.8481   12.4963 C.ar    1  UNL1        0.0990
     15 N          63.1282   81.0396   13.9836 N.ar    1  UNL1       -0.2410
     16 C          62.9792   82.4168   14.5589 C.ar    1  UNL1        0.1135
     17 C          64.1623   90.9832   15.2738 C.2     1  UNL1        0.1997
     18 O          63.8022   92.0008   16.3152 O.2     1  UNL1       -0.2864
     19 C          64.7965   91.4196   13.9864 C.ar    1  UNL1        0.0726
     20 C          64.0174   91.3529   12.7063 C.ar    1  UNL1        0.1436
     21 F          62.6043   90.8498   12.7136 F       1  UNL1       -0.2041
     22 C          64.6515   91.7893   11.4188 C.ar    1  UNL1        0.0298
     23 C          66.0646   92.2924   11.4115 C.ar    1  UNL1        0.0028
     24 C          66.8436   92.3591   12.6917 C.ar    1  UNL1        0.0069
     25 C          66.2095   91.9227   13.9791 C.ar    1  UNL1        0.0398
     26 BR         66.9885   91.9894   15.2592 Br      1  UNL1       -0.0488
@<TRIPOS>BOND
     1     7     8    2
     2     8     9   am
     3     9    11    1
     4    11    12   ar
     5    12    13   ar
     6    13    14   ar
     7    14    15   ar
     8    15    16   ar
     9     8     1    1
    10     1     2   ar
    11     2     3   ar
    12     3    17    1
    13    17    18    2
    14    17    19    1
    15    19    20   ar
    16    20    21    1
    17    20    22   ar
    18    22    23   ar
    19    23    24   ar
    20    24    25   ar
    21    25    26    1
    22     3     4   ar
    23     4     5   ar
    24    16    11   ar
    25     5     1   ar
    26    25    19   ar
    27     9    10    1
    28     5     6    1
@<TRIPOS>MOLECULE
*****
 26 28 0 0 0
SMALL
GASTEIGER

@<TRIPOS>ATOM
      1 C          63.8028   87.1392   15.2694 C.ar    1  UNL1        0.1112
      2 C          64.3009   88.4200   14.6683 C.ar    1  UNL1        0.0263
      3 C          63.9228   89.5421   15.5892 C.ar    1  UNL1        0.0576
      4 C          63.1910   88.9546   16.7595 C.ar    1  UNL1        0.0757
      5 N          63.1169   87.4696   16.5618 N.ar    1  UNL1       -0.3484
      6 H          62.6926   86.8249   17.1730 H       1  UNL1        0.1661
      7 O          65.3296   85.1664   14.5431 O.2     1  UNL1       -0.2682
      8 C          63.9627   85.7685   14.6813 C.2     1  UNL1        0.2652
      9 N          62.7557   85.0000   14.2314 N.am    1  UNL1       -0.2780
     10 H          61.8585   85.3952   14.3221 H       1  UNL1        0.1553
     11 C          62.9155   83.6294   13.6433 C.ar    1  UNL1        0.0700
     12 C          62.8625   83.4405   12.1562 C.ar    1  UNL1        0.0179
     13 C          63.0223   82.0698   11.5682 C.ar    1  UNL1        0.0220
     14 C          63.2352   80.8881   12.4672 C.ar    1  UNL1        0.0990
     15 N          63.2882   81.0771   13.9543 N.ar    1  UNL1       -0.2410
     16 C          63.1284   82.4477   14.5423 C.ar    1  UNL1        0.1135
     17 C          64.2236   90.9962   15.3771 C.2     1  UNL1        0.1997
     18 O          63.6386   92.0253   16.2985 O.2     1  UNL1       -0.2864
     19 C          65.1094   91.4214   14.2436 C.ar    1  UNL1        0.0726
     20 C          66.5411   91.7838   14.5060 C.ar    1  UNL1        0.1436
     21 F          67.0871   91.7211   15.9017 F       1  UNL1       -0.2041
     22 C          67.4268   92.2089   13.3725 C.ar    1  UNL1        0.0298
     23 C          66.8809   92.2716   11.9768 C.ar    1  UNL1        0.0028
     24 C          65.4491   91.9091   11.7146 C.ar    1  UNL1        0.0069
     25 C          64.5634   91.4840   12.8480 C.ar    1  UNL1        0.0398
     26 BR         63.1317   91.1215   12.5858 Br      1  UNL1       -0.0488
@<TRIPOS>BOND
     1     7     8    2
     2     8     9   am
     3     9    11    1
     4    11    12   ar
     5    12    13   ar
     6    13    14   ar
     7    14    15   ar
     8    15    16   ar
     9     8     1    1
    10     1     2   ar
    11     2     3   ar
    12     3    17    1
    13    17    18    2
    14    17    19    1
    15    19    20   ar
    16    20    21    1
    17    20    22   ar
    18    22    23   ar
    19    23    24   ar
    20    24    25   ar
    21    25    26    1
    22     3     4   ar
    23     4     5   ar
    24    16    11   ar
    25     5     1   ar
    26    25    19   ar
    27     9    10    1
    28     5     6    1
@<TRIPOS>MOLECULE
*****
 26 28 0 0 0
SMALL
GASTEIGER

@<TRIPOS>ATOM
      1 C          63.3361   90.5563   12.2538 C.ar    1  UNL1        0.1112
      2 C          64.2130   91.5887   11.6095 C.ar    1  UNL1        0.0263
      3 C          65.0992   92.1714   12.6704 C.ar    1  UNL1        0.0576
      4 C          64.7699   91.4990   13.9702 C.ar    1  UNL1        0.0757
      5 N          63.6802   90.5008   13.7127 N.ar    1  UNL1       -0.3484
      6 H          63.2640   89.9126   14.3835 H       1  UNL1        0.1661
      7 O          61.0297   89.3604   12.2749 O.2     1  UNL1       -0.2682
      8 C          62.2973   89.7252   11.5607 C.2     1  UNL1        0.2652
      9 N          62.5262   89.2589   10.1536 N.am    1  UNL1       -0.2780
     10 H          63.3582   89.4984    9.6848 H       1  UNL1        0.1553
     11 C          61.4874   88.4278    9.4605 C.ar    1  UNL1        0.0700
     12 C          61.6279   86.9351    9.4166 C.ar    1  UNL1        0.0179
     13 C          60.5892   86.1041    8.7235 C.ar    1  UNL1        0.0220
     14 C          59.4099   86.7658    8.0743 C.ar    1  UNL1        0.0990
     15 N          59.2694   88.2585    8.1182 N.ar    1  UNL1       -0.2410
     16 C          60.3082   89.0895    8.8113 C.ar    1  UNL1        0.1135
     17 C          66.1331   93.2389   12.4670 C.2     1  UNL1        0.1997
     18 O          66.4358   94.2096   13.5698 O.2     1  UNL1       -0.2864
     19 C          66.8644   93.3358   11.1609 C.ar    1  UNL1        0.0726
     20 C          67.9172   92.3251   10.8141 C.ar    1  UNL1        0.1436
     21 F          68.2387   91.2176   11.7734 F       1  UNL1       -0.2041
     22 C          68.6484   92.4219    9.5080 C.ar    1  UNL1        0.0298
     23 C          68.3269   93.5294    8.5488 C.ar    1  UNL1        0.0028
     24 C          67.2741   94.5401    8.8957 C.ar    1  UNL1        0.0069
     25 C          66.5429   94.4432   10.2017 C.ar    1  UNL1        0.0398
     26 BR         65.4901   95.4538   10.5486 Br      1  UNL1       -0.0488
@<TRIPOS>BOND
     1     7     8    2
     2     8     9   am
     3     9    11    1
     4    11    12   ar
     5    12    13   ar
     6    13    14   ar
     7    14    15   ar
     8    15    16   ar
     9     8     1    1
    10     1     2   ar
    11     2     3   ar
    12     3    17    1
    13    17    18    2
    14    17    19    1
    15    19    20   ar
    16    20    21    1
    17    20    22   ar
    18    22    23   ar
    19    23    24   ar
    20    24    25   ar
    21    25    26    1
    22     3     4   ar
    23     4     5   ar
    24    16    11   ar
    25     5     1   ar
    26    25    19   ar
    27     9    10    1
    28     5     6    1
@<TRIPOS>MOLECULE
*****
 26 28 0 0 0
SMALL
GASTEIGER

@<TRIPOS>ATOM
      1 C          63.2503   89.4264   12.6987 C.ar    1  UNL1        0.1112
      2 C          63.2282   88.0135   12.1955 C.ar    1  UNL1        0.0263
      3 C          61.9958   87.8390   11.3582 C.ar    1  UNL1        0.0576
      4 C          61.2565   89.1441   11.3440 C.ar    1  UNL1        0.0757
      5 N          62.0318   90.1251   12.1725 N.ar    1  UNL1       -0.3484
      6 H          61.7844   91.0630   12.3412 H       1  UNL1        0.1661
      7 O          64.5609   89.4718   14.9416 O.2     1  UNL1       -0.2682
      8 C          64.3058   90.0339   13.5745 C.2     1  UNL1        0.2652
      9 N          65.1063   91.2035   13.0832 N.am    1  UNL1       -0.2780
     10 H          64.9389   91.5724   12.1859 H       1  UNL1        0.1553
     11 C          66.1618   91.8109   13.9590 C.ar    1  UNL1        0.0700
     12 C          65.8228   92.2366   15.3568 C.ar    1  UNL1        0.0179
     13 C          66.8783   92.8441   16.2325 C.ar    1  UNL1        0.0220
     14 C          68.2727   93.0258   15.7104 C.ar    1  UNL1        0.0990
     15 N          68.6117   92.6001   14.3126 N.ar    1  UNL1       -0.2410
     16 C          67.5562   91.9927   13.4369 C.ar    1  UNL1        0.1135
     17 C          61.5765   86.5805   10.6580 C.2     1  UNL1        0.1997
     18 O          60.3243   86.5631    9.8324 O.2     1  UNL1       -0.2864
     19 C          62.4095   85.3393   10.7835 C.ar    1  UNL1        0.0726
     20 C          62.5503   84.6620   12.1145 C.ar    1  UNL1        0.1436
     21 F          61.8584   85.2259   13.3200 F       1  UNL1       -0.2041
     22 C          63.3833   83.4209   12.2399 C.ar    1  UNL1        0.0298
     23 C          64.0752   82.8570   11.0345 C.ar    1  UNL1        0.0028
     24 C          63.9343   83.5343    9.7034 C.ar    1  UNL1        0.0069
     25 C          63.1014   84.7754    9.5780 C.ar    1  UNL1        0.0398
     26 BR         62.9605   85.4527    8.2471 Br      1  UNL1       -0.0488
@<TRIPOS>BOND
     1     7     8    2
     2     8     9   am
     3     9    11    1
     4    11    12   ar
     5    12    13   ar
     6    13    14   ar
     7    14    15   ar
     8    15    16   ar
     9     8     1    1
    10     1     2   ar
    11     2     3   ar
    12     3    17    1
    13    17    18    2
    14    17    19    1
    15    19    20   ar
    16    20    21    1
    17    20    22   ar
    18    22    23   ar
    19    23    24   ar
    20    24    25   ar
    21    25    26    1
    22     3     4   ar
    23     4     5   ar
    24    16    11   ar
    25     5     1   ar
    26    25    19   ar
    27     9    10    1
    28     5     6    1
@<TRIPOS>MOLECULE
*****
 26 28 0 0 0
SMALL
GASTEIGER

@<TRIPOS>ATOM
      1 C          63.8804   91.3572   11.5278 C.ar    1  UNL1        0.1112
      2 C          62.9690   90.2795   12.0359 C.ar    1  UNL1        0.0263
      3 C          61.9933   89.9458   10.9464 C.ar    1  UNL1        0.0576
      4 C          62.3018   90.8173    9.7651 C.ar    1  UNL1        0.0757
      5 N          63.4680   91.6895   10.1244 N.ar    1  UNL1       -0.3484
      6 H          63.8889   92.3620    9.5415 H       1  UNL1        0.1661
      7 O          65.5305   93.3338   11.8741 O.2     1  UNL1       -0.2682
      8 C          65.0064   91.9911   12.2895 C.2     1  UNL1        0.2652
      9 N          65.6083   91.2824   13.4665 N.am    1  UNL1       -0.2780
     10 H          65.2644   90.4012   13.7391 H       1  UNL1        0.1553
     11 C          66.7344   91.9164   14.2282 C.ar    1  UNL1        0.0700
     12 C          66.4877   92.4913   15.5915 C.ar    1  UNL1        0.0179
     13 C          67.6137   93.1252   16.3531 C.ar    1  UNL1        0.0220
     14 C          68.9865   93.1843   15.7514 C.ar    1  UNL1        0.0990
     15 N          69.2332   92.6095   14.3882 N.ar    1  UNL1       -0.2410
     16 C          68.1072   91.9755   13.6265 C.ar    1  UNL1        0.1135
     17 C          60.9011   88.9207   11.0246 C.2     1  UNL1        0.1997
     18 O          60.0016   88.8732   12.2241 O.2     1  UNL1       -0.2864
     19 C          60.7082   87.9432    9.9033 C.ar    1  UNL1        0.0726
     20 C          59.9518   88.3517    8.6741 C.ar    1  UNL1        0.1436
     21 F          59.3882   89.7376    8.5661 F       1  UNL1       -0.2041
     22 C          59.7590   87.3741    7.5528 C.ar    1  UNL1        0.0298
     23 C          60.3226   85.9883    7.6608 C.ar    1  UNL1        0.0028
     24 C          61.0790   85.5798    8.8901 C.ar    1  UNL1        0.0069
     25 C          61.2718   86.5573   10.0113 C.ar    1  UNL1        0.0398
     26 BR         62.0282   86.1490   11.2406 Br      1  UNL1       -0.0488
@<TRIPOS>BOND
     1     7     8    2
     2     8     9   am
     3     9    11    1
     4    11    12   ar
     5    12    13   ar
     6    13    14   ar
     7    14    15   ar
     8    15    16   ar
     9     8     1    1
    10     1     2   ar
    11     2     3   ar
    12     3    17    1
    13    17    18    2
    14    17    19    1
    15    19    20   ar
    16    20    21    1
    17    20    22   ar
    18    22    23   ar
    19    23    24   ar
    20    24    25   ar
    21    25    26    1
    22     3     4   ar
    23     4     5   ar
    24    16    11   ar
    25     5     1   ar
    26    25    19   ar
    27     9    10    1
    28     5     6    1
@<TRIPOS>MOLECULE
*****
 26 28 0 0 0
SMALL
GASTEIGER

@<TRIPOS>ATOM
      1 C          63.5334   90.9423   11.5649 C.ar    1  UNL1        0.1112
      2 C          62.9336   89.6018   11.8702 C.ar    1  UNL1        0.0263
      3 C          61.9045   89.3046   10.8200 C.ar    1  UNL1        0.0576
      4 C          61.8685   90.4615    9.8658 C.ar    1  UNL1        0.0757
      5 N          62.8752   91.4736   10.3262 N.ar    1  UNL1       -0.3484
      6 H          63.0698   92.3353    9.8917 H       1  UNL1        0.1661
      7 O          65.1850   92.9244   11.8710 O.2     1  UNL1       -0.2682
      8 C          64.6038   91.6307   12.3591 C.2     1  UNL1        0.2652
      9 N          65.0927   91.0253   13.6414 N.am    1  UNL1       -0.2780
     10 H          64.7112   90.1761   13.9618 H       1  UNL1        0.1553
     11 C          66.1630   91.7136   14.4356 C.ar    1  UNL1        0.0700
     12 C          67.5727   91.7466   13.9239 C.ar    1  UNL1        0.0179
     13 C          68.6429   92.4349   14.7181 C.ar    1  UNL1        0.0220
     14 C          68.3035   93.0903   16.0240 C.ar    1  UNL1        0.0990
     15 N          66.8939   93.0573   16.5357 N.ar    1  UNL1       -0.2410
     16 C          65.8237   92.3690   15.7415 C.ar    1  UNL1        0.1135
     17 C          61.0598   88.0677   10.7383 C.2     1  UNL1        0.1997
     18 O          59.8551   87.9227   11.6201 O.2     1  UNL1       -0.2864
     19 C          61.4199   86.9758    9.7749 C.ar    1  UNL1        0.0726
     20 C          62.4754   85.9737   10.1375 C.ar    1  UNL1        0.1436
     21 F          63.1709   86.0634   11.4635 F       1  UNL1       -0.2041
     22 C          62.8355   84.8818    9.1741 C.ar    1  UNL1        0.0298
     23 C          62.1400   84.7922    7.8481 C.ar    1  UNL1        0.0028
     24 C          61.0844   85.7944    7.4855 C.ar    1  UNL1        0.0069
     25 C          60.7244   86.8862    8.4489 C.ar    1  UNL1        0.0398
     26 BR         59.6688   87.8884    8.0864 Br      1  UNL1       -0.0488
@<TRIPOS>BOND
     1     7     8    2
     2     8     9   am
     3     9    11    1
     4    11    12   ar
     5    12    13   ar
     6    13    14   ar
     7    14    15   ar
     8    15    16   ar
     9     8     1    1
    10     1     2   ar
    11     2     3   ar
    12     3    17    1
    13    17    18    2
    14    17    19    1
    15    19    20   ar
    16    20    21    1
    17    20    22   ar
    18    22    23   ar
    19    23    24   ar
    20    24    25   ar
    21    25    26    1
    22     3     4   ar
    23     4     5   ar
    24    16    11   ar
    25     5     1   ar
    26    25    19   ar
    27     9    10    1
    28     5     6    1
@<TRIPOS>MOLECULE
*****
 26 28 0 0 0
SMALL
GASTEIGER

@<TRIPOS>ATOM
      1 C          63.6457   90.7285   11.7881 C.ar    1  UNL1        0.1112
      2 C          63.2024   89.3298   12.0995 C.ar    1  UNL1        0.0263
      3 C          62.1431   88.9477   11.1085 C.ar    1  UNL1        0.0576
      4 C          61.9318   90.1104   10.1846 C.ar    1  UNL1        0.0757
      5 N          62.8604   91.2110   10.6046 N.ar    1  UNL1       -0.3484
      6 H          62.9405   92.0948   10.1784 H       1  UNL1        0.1661
      7 O          65.1232   92.8525   12.0246 O.2     1  UNL1       -0.2682
      8 C          64.6908   91.5080   12.5299 C.2     1  UNL1        0.2652
      9 N          65.3035   90.9429   13.7770 N.am    1  UNL1       -0.2780
     10 H          65.0197   90.0604   14.1086 H       1  UNL1        0.1553
     11 C          66.3486   91.7223   14.5189 C.ar    1  UNL1        0.0700
     12 C          67.7524   91.7829   13.9940 C.ar    1  UNL1        0.0179
     13 C          68.7975   92.5623   14.7359 C.ar    1  UNL1        0.0220
     14 C          68.4386   93.2811   16.0026 C.ar    1  UNL1        0.0990
     15 N          67.0348   93.2206   16.5274 N.ar    1  UNL1       -0.2410
     16 C          65.9898   92.4412   15.7855 C.ar    1  UNL1        0.1135
     17 C          61.4219   87.6338   11.0514 C.2     1  UNL1        0.1997
     18 O          60.0781   87.4870   11.7016 O.2     1  UNL1       -0.2864
     19 C          62.0444   86.4666   10.3441 C.ar    1  UNL1        0.0726
     20 C          61.9626   86.3647    8.8498 C.ar    1  UNL1        0.1436
     21 F          61.2583   87.4299    8.0628 F       1  UNL1       -0.2041
     22 C          62.5851   85.1976    8.1425 C.ar    1  UNL1        0.0298
     23 C          63.2893   84.1324    8.9295 C.ar    1  UNL1        0.0028
     24 C          63.3711   84.2343   10.4238 C.ar    1  UNL1        0.0069
     25 C          62.7487   85.4014   11.1311 C.ar    1  UNL1        0.0398
     26 BR         62.8304   85.5034   12.6253 Br      1  UNL1       -0.0488
@<TRIPOS>BOND
     1     7     8    2
     2     8     9   am
     3     9    11    1
     4    11    12   ar
     5    12    13   ar
     6    13    14   ar
     7    14    15   ar
     8    15    16   ar
     9     8     1    1
    10     1     2   ar
    11     2     3   ar
    12     3    17    1
    13    17    18    2
    14    17    19    1
    15    19    20   ar
    16    20    21    1
    17    20    22   ar
    18    22    23   ar
    19    23    24   ar
    20    24    25   ar
    21    25    26    1
    22     3     4   ar
    23     4     5   ar
    24    16    11   ar
    25     5     1   ar
    26    25    19   ar
    27     9    10    1
    28     5     6    1
@<TRIPOS>MOLECULE
*****
 26 28 0 0 0
SMALL
GASTEIGER

@<TRIPOS>ATOM
      1 C          63.8631   90.5393   12.2194 C.ar    1  UNL1        0.1112
      2 C          64.4404   91.7607   11.5676 C.ar    1  UNL1        0.0263
      3 C          65.3100   92.4555   12.5733 C.ar    1  UNL1        0.0576
      4 C          65.2700   91.6634   13.8465 C.ar    1  UNL1        0.0757
      5 N          64.3758   90.4791   13.6277 N.ar    1  UNL1       -0.3484
      6 H          64.1628   89.7844   14.2919 H       1  UNL1        0.1661
      7 O          62.4605   88.3561   12.3472 O.2     1  UNL1       -0.2682
      8 C          62.9358   89.5514   11.5757 C.2     1  UNL1        0.2652
      9 N          62.4839   89.7589   10.1605 N.am    1  UNL1       -0.2780
     10 H          62.7958   90.5434    9.6542 H       1  UNL1        0.1553
     11 C          61.5566   88.7710    9.5168 C.ar    1  UNL1        0.0700
     12 C          61.9498   87.3268    9.4189 C.ar    1  UNL1        0.0179
     13 C          61.0226   86.3390    8.7752 C.ar    1  UNL1        0.0220
     14 C          59.7020   86.7954    8.2295 C.ar    1  UNL1        0.0990
     15 N          59.3087   88.2396    8.3274 N.ar    1  UNL1       -0.2410
     16 C          60.2360   89.2274    8.9711 C.ar    1  UNL1        0.1135
     17 C          66.0836   93.7203   12.3456 C.2     1  UNL1        0.1997
     18 O          66.4279   94.6077   13.5049 O.2     1  UNL1       -0.2864
     19 C          66.5129   94.0976   10.9588 C.ar    1  UNL1        0.0726
     20 C          65.9728   95.3422   10.3191 C.ar    1  UNL1        0.1436
     21 F          65.0035   96.2095   11.0661 F       1  UNL1       -0.2041
     22 C          66.4022   95.7195    8.9322 C.ar    1  UNL1        0.0298
     23 C          67.3715   94.8522    8.1851 C.ar    1  UNL1        0.0028
     24 C          67.9116   93.6075    8.8249 C.ar    1  UNL1        0.0069
     25 C          67.4823   93.2303   10.2117 C.ar    1  UNL1        0.0398
     26 BR         68.0223   91.9857   10.8515 Br      1  UNL1       -0.0488
@<TRIPOS>BOND
     1     7     8    2
     2     8     9   am
     3     9    11    1
     4    11    12   ar
     5    12    13   ar
     6    13    14   ar
     7    14    15   ar
     8    15    16   ar
     9     8     1    1
    10     1     2   ar
    11     2     3   ar
    12     3    17    1
    13    17    18    2
    14    17    19    1
    15    19    20   ar
    16    20    21    1
    17    20    22   ar
    18    22    23   ar
    19    23    24   ar
    20    24    25   ar
    21    25    26    1
    22     3     4   ar
    23     4     5   ar
    24    16    11   ar
    25     5     1   ar
    26    25    19   ar
    27     9    10    1
    28     5     6    1
@<TRIPOS>MOLECULE
*****
 26 28 0 0 0
SMALL
GASTEIGER

@<TRIPOS>ATOM
      1 C          62.4898   90.0411   10.4993 C.ar    1  UNL1        0.1112
      2 C          62.6195   88.5481   10.4351 C.ar    1  UNL1        0.0263
      3 C          61.4372   88.0120    9.6834 C.ar    1  UNL1        0.0576
      4 C          60.5769   89.1738    9.2831 C.ar    1  UNL1        0.0757
      5 N          61.2275   90.4278    9.7874 N.ar    1  UNL1       -0.3484
      6 H          60.8859   91.3438    9.6714 H       1  UNL1        0.1661
      7 O          63.9514   92.1876   10.4186 O.2     1  UNL1       -0.2682
      8 C          63.4535   90.9821   11.1596 C.2     1  UNL1        0.2652
      9 N          63.9191   90.7178   12.5607 N.am    1  UNL1       -0.2780
     10 H          63.5922   89.9266   13.0470 H       1  UNL1        0.1553
     11 C          64.8827   91.6588   13.2210 C.ar    1  UNL1        0.0700
     12 C          65.5148   92.7637   12.4276 C.ar    1  UNL1        0.0179
     13 C          66.4784   93.7047   13.0879 C.ar    1  UNL1        0.0220
     14 C          66.8098   93.5408   14.5416 C.ar    1  UNL1        0.0990
     15 N          66.1777   92.4359   15.3350 N.ar    1  UNL1       -0.2410
     16 C          65.2141   91.4949   14.6747 C.ar    1  UNL1        0.1135
     17 C          61.1633   86.5678    9.3846 C.2     1  UNL1        0.1997
     18 O          59.9677   86.1856    8.5635 O.2     1  UNL1       -0.2864
     19 C          62.0851   85.5060    9.9069 C.ar    1  UNL1        0.0726
     20 C          62.1360   85.2140   11.3773 C.ar    1  UNL1        0.1436
     21 F          61.2652   85.9839   12.3255 F       1  UNL1       -0.2041
     22 C          63.0578   84.1521   11.8996 C.ar    1  UNL1        0.0298
     23 C          63.9286   83.3823   10.9515 C.ar    1  UNL1        0.0028
     24 C          63.8777   83.6743    9.4810 C.ar    1  UNL1        0.0069
     25 C          62.9559   84.7361    8.9587 C.ar    1  UNL1        0.0398
     26 BR         62.9050   85.0281    7.4883 Br      1  UNL1       -0.0488
@<TRIPOS>BOND
     1     7     8    2
     2     8     9   am
     3     9    11    1
     4    11    12   ar
     5    12    13   ar
     6    13    14   ar
     7    14    15   ar
     8    15    16   ar
     9     8     1    1
    10     1     2   ar
    11     2     3   ar
    12     3    17    1
    13    17    18    2
    14    17    19    1
    15    19    20   ar
    16    20    21    1
    17    20    22   ar
    18    22    23   ar
    19    23    24   ar
    20    24    25   ar
    21    25    26    1
    22     3     4   ar
    23     4     5   ar
    24    16    11   ar
    25     5     1   ar
    26    25    19   ar
    27     9    10    1
    28     5     6    1
