@<TRIPOS>MOLECULE
*****
 48 54 0 0 0
SMALL
GASTEIGER

@<TRIPOS>ATOM
      1 C          59.9547   88.5665    8.1282 C.3     1  UNL1        0.1239
      2 C          59.0251   88.0521    7.0693 C.3     1  UNL1        0.0374
      3 C          58.7859   89.1587    6.0854 C.3     1  UNL1        0.0739
      4 N          59.5676   90.3569    6.5361 N.3     1  UNL1       -0.2638
      5 C          60.2900   89.9909    7.7987 C.3     1  UNL1        0.0913
      6 C          60.8536   88.7929    9.3076 C.2     1  UNL1        0.2357
      7 O          61.2030   87.6503   10.2145 O.2     1  UNL1       -0.2739
      8 N          61.4029   90.1618    9.5801 N.am    1  UNL1       -0.2864
      9 H          61.1736   90.9117    8.9848 H       1  UNL1        0.1546
     10 C          62.3018   90.3882   10.7595 C.2     1  UNL1        0.0320
     11 C          62.0478   89.6609   12.0465 C.2     1  UNL1        0.0122
     12 C          62.9466   89.8874   13.2258 C.2     1  UNL1        0.0216
     13 C          64.0994   90.8410   13.1181 C.2     1  UNL1        0.1008
     14 N          65.1475   91.2643   14.1043 N.2     1  UNL1       -0.1483
     15 N          66.0491   92.2531   13.4267 N.2     1  UNL1       -0.1483
     16 C          65.5583   92.4410   12.0217 C.2     1  UNL1        0.1007
     17 C          64.3534   91.5683   11.8310 C.2     1  UNL1        0.0223
     18 C          63.4545   91.3419   10.6517 C.3     1  UNL1        0.0706
     19 C          66.1659   93.3432   10.9888 C.ar    1  UNL1        0.0193
     20 C          65.7406   94.7791   10.9037 C.ar    1  UNL1        0.0038
     21 C          66.3482   95.6813    9.8708 C.ar    1  UNL1        0.0297
     22 C          67.3809   95.1477    8.9229 C.ar    1  UNL1        0.1401
     23 F          67.9885   96.0499    7.8900 F       1  UNL1       -0.2042
     24 C          67.8062   93.7117    9.0080 C.ar    1  UNL1        0.0297
     25 C          67.1986   92.8095   10.0409 C.ar    1  UNL1        0.0038
     26 C          59.9872   85.9862    7.8270 C.3     1  UNL1        0.0696
     27 S          59.8074   87.1894    8.7044 S.3     1  UNL1       -0.1309
     28 C          59.6181   91.6875    5.8455 C.3     1  UNL1        0.1587
     29 C          58.9267   91.8752    4.5276 C.2     1  UNL1        0.2423
     30 O          57.4448   91.6688    4.4220 O.2     1  UNL1       -0.2733
     31 N          59.7174   92.2693    3.3154 N.am    1  UNL1       -0.2740
     32 C          59.0260   92.4570    1.9975 C.3     1  UNL1        0.1196
     33 C          59.8167   92.8510    0.7852 C.2     1  UNL1       -0.0089
     34 C          61.2986   93.0575    0.8908 C.2     1  UNL1       -0.0231
     35 C          61.9899   92.8698    2.2087 C.3     1  UNL1        0.0476
     36 C          61.1993   92.4757    3.4209 C.3     1  UNL1        0.0984
     37 C          62.0892   93.4515   -0.3215 C.ar    1  UNL1       -0.0042
     38 C          61.5667   93.1382   -1.6922 C.ar    1  UNL1       -0.0002
     39 C          62.3574   93.5323   -2.9044 C.ar    1  UNL1        0.0030
     40 C          63.6705   94.2397   -2.7460 C.ar    1  UNL1        0.0358
     41 C          64.1930   94.5531   -1.3753 C.ar    1  UNL1        0.0030
     42 C          63.4024   94.1590   -0.1631 C.ar    1  UNL1       -0.0002
     43 C          64.4611   94.6338   -3.9583 C.ar    1  UNL1        0.1623
     44 N          65.0279   96.0184   -4.0665 N.ar    1  UNL1       -0.2250
     45 C          65.8186   96.4126   -5.2788 C.ar    1  UNL1        0.1022
     46 C          66.0425   95.4221   -6.3828 C.ar    1  UNL1        0.0414
     47 C          65.4757   94.0375   -6.2745 C.ar    1  UNL1        0.1022
     48 N          64.6851   93.6434   -5.0623 N.ar    1  UNL1       -0.2250
@<TRIPOS>BOND
     1    26    27    1
     2     1    27    1
     3     1     6    1
     4     6     7    2
     5     6     8   am
     6     8    10    1
     7    10    11    2
     8    11    12    1
     9    12    13    2
    10    13    14    1
    11    14    15    2
    12    15    16    1
    13    16    19    1
    14    19    20   ar
    15    20    21   ar
    16    21    22   ar
    17    22    23    1
    18    22    24   ar
    19    24    25   ar
    20    16    17    2
    21    17    18    1
    22     1     2    1
    23     2     3    1
    24     3     4    1
    25     4    28    1
    26    28    29    1
    27    29    30    2
    28    29    31   am
    29    31    32    1
    30    32    33    1
    31    33    34    2
    32    34    37    1
    33    37    38   ar
    34    38    39   ar
    35    39    40   ar
    36    40    43    1
    37    43    44   ar
    38    44    45   ar
    39    45    46   ar
    40    46    47   ar
    41    47    48   ar
    42    40    41   ar
    43    41    42   ar
    44    34    35    1
    45    35    36    1
    46     4     5    1
    47     5     1    1
    48    18    10    1
    49    36    31    1
    50    17    13    1
    51    42    37   ar
    52    25    19   ar
    53    48    43   ar
    54     8     9    1
@<TRIPOS>MOLECULE
*****
 48 54 0 0 0
SMALL
GASTEIGER

@<TRIPOS>ATOM
      1 C          63.5691   86.4835   15.5134 C.3     1  UNL1        0.1239
      2 C          63.1355   85.5802   16.6297 C.3     1  UNL1        0.0374
      3 C          63.0819   84.1788   16.0977 C.3     1  UNL1        0.0739
      4 N          63.4823   84.2159   14.6527 N.3     1  UNL1       -0.2638
      5 C          63.7834   85.6402   14.2915 C.3     1  UNL1        0.0913
      6 C          63.9756   87.6124   14.6132 C.2     1  UNL1        0.2357
      7 O          65.4075   88.0571   14.5678 O.2     1  UNL1       -0.2739
      8 N          62.9503   88.2966   13.7585 N.am    1  UNL1       -0.2864
      9 H          62.0106   88.0047   13.7883 H       1  UNL1        0.1546
     10 C          63.3569   89.4256   12.8583 C.2     1  UNL1        0.0320
     11 C          62.6156   89.6673   11.5769 C.2     1  UNL1        0.0122
     12 C          63.0222   90.7962   10.6768 C.2     1  UNL1        0.0216
     13 C          64.1700   91.6833   11.0581 C.2     1  UNL1        0.1008
     14 N          64.7945   92.8651   10.3771 N.2     1  UNL1       -0.1483
     15 N          65.9216   93.3537   11.2378 N.2     1  UNL1       -0.1483
     16 C          65.9938   92.4740   12.4506 C.2     1  UNL1        0.1007
     17 C          64.9113   91.4416   12.3395 C.2     1  UNL1        0.0223
     18 C          64.5047   90.3127   13.2396 C.3     1  UNL1        0.0706
     19 C          66.9761   92.6038   13.5767 C.ar    1  UNL1        0.0193
     20 C          66.5994   93.3580   14.8174 C.ar    1  UNL1        0.0038
     21 C          67.5817   93.4878   15.9435 C.ar    1  UNL1        0.0297
     22 C          68.9407   92.8634   15.8291 C.ar    1  UNL1        0.1401
     23 F          69.9230   92.9932   16.9553 F       1  UNL1       -0.2042
     24 C          69.3174   92.1091   14.5885 C.ar    1  UNL1        0.0297
     25 C          68.3351   91.9793   13.4623 C.ar    1  UNL1        0.0038
     26 C          62.7079   87.2906   17.8279 C.3     1  UNL1        0.0696
     27 S          63.4397   87.5627   16.5471 S.3     1  UNL1       -0.1309
     28 C          63.5668   83.0358   13.7306 C.3     1  UNL1        0.1587
     29 C          63.9658   83.2306   12.2978 C.2     1  UNL1        0.2423
     30 O          65.1232   82.4634   11.7307 O.2     1  UNL1       -0.2733
     31 N          63.2073   84.1925   11.4321 N.am    1  UNL1       -0.2740
     32 C          63.6063   84.3873    9.9993 C.3     1  UNL1        0.1196
     33 C          62.8478   85.3492    9.1337 C.2     1  UNL1       -0.0089
     34 C          61.6903   86.1164    9.7007 C.2     1  UNL1       -0.0231
     35 C          61.2913   85.9216   11.1335 C.3     1  UNL1        0.0476
     36 C          62.0498   84.9597   11.9992 C.3     1  UNL1        0.0984
     37 C          60.9318   87.0783    8.8350 C.ar    1  UNL1       -0.0042
     38 C          60.9479   88.5446    9.1507 C.ar    1  UNL1       -0.0002
     39 C          60.1894   89.5065    8.2851 C.ar    1  UNL1        0.0030
     40 C          59.4149   89.0022    7.1037 C.ar    1  UNL1        0.0358
     41 C          59.3988   87.5358    6.7880 C.ar    1  UNL1        0.0030
     42 C          60.1573   86.5739    7.6537 C.ar    1  UNL1       -0.0002
     43 C          58.6564   89.9641    6.2380 C.ar    1  UNL1        0.1623
     44 N          57.1574   89.9209    6.2038 N.ar    1  UNL1       -0.2250
     45 C          56.3988   90.8828    5.3381 C.ar    1  UNL1        0.1022
     46 C          57.1394   91.8879    4.5067 C.ar    1  UNL1        0.0414
     47 C          58.6384   91.9311    4.5408 C.ar    1  UNL1        0.1022
     48 N          59.3968   90.9692    5.4065 N.ar    1  UNL1       -0.2250
@<TRIPOS>BOND
     1    26    27    1
     2     1    27    1
     3     1     6    1
     4     6     7    2
     5     6     8   am
     6     8    10    1
     7    10    11    2
     8    11    12    1
     9    12    13    2
    10    13    14    1
    11    14    15    2
    12    15    16    1
    13    16    19    1
    14    19    20   ar
    15    20    21   ar
    16    21    22   ar
    17    22    23    1
    18    22    24   ar
    19    24    25   ar
    20    16    17    2
    21    17    18    1
    22     1     2    1
    23     2     3    1
    24     3     4    1
    25     4    28    1
    26    28    29    1
    27    29    30    2
    28    29    31   am
    29    31    32    1
    30    32    33    1
    31    33    34    2
    32    34    37    1
    33    37    38   ar
    34    38    39   ar
    35    39    40   ar
    36    40    43    1
    37    43    44   ar
    38    44    45   ar
    39    45    46   ar
    40    46    47   ar
    41    47    48   ar
    42    40    41   ar
    43    41    42   ar
    44    34    35    1
    45    35    36    1
    46     4     5    1
    47     5     1    1
    48    18    10    1
    49    36    31    1
    50    17    13    1
    51    42    37   ar
    52    25    19   ar
    53    48    43   ar
    54     8     9    1
@<TRIPOS>MOLECULE
*****
 48 54 0 0 0
SMALL
GASTEIGER

@<TRIPOS>ATOM
      1 C          59.6154   88.8564    7.8748 C.3     1  UNL1        0.1239
      2 C          58.7284   88.4797    6.7253 C.3     1  UNL1        0.0374
      3 C          58.9643   89.4620    5.6166 C.3     1  UNL1        0.0739
      4 N          59.9970   90.4458    6.0809 N.3     1  UNL1       -0.2638
      5 C          60.3994   90.0716    7.4765 C.3     1  UNL1        0.0913
      6 C          60.3715   88.9846    9.1640 C.2     1  UNL1        0.2357
      7 O          60.0093   90.0629   10.1418 O.2     1  UNL1       -0.2739
      8 N          61.4897   88.0346    9.4753 N.am    1  UNL1       -0.2864
      9 H          61.7274   87.3269    8.8336 H       1  UNL1        0.1546
     10 C          62.2458   88.1628   10.7645 C.2     1  UNL1        0.0320
     11 C          62.6771   89.5150   11.2497 C.2     1  UNL1        0.0122
     12 C          63.4332   89.6432   12.5388 C.2     1  UNL1        0.0216
     13 C          63.7579   88.4192   13.3428 C.2     1  UNL1        0.1008
     14 N          64.4846   88.2354   14.6421 N.2     1  UNL1       -0.1483
     15 N          64.5024   86.7696   14.9599 N.2     1  UNL1       -0.1483
     16 C          63.7867   86.0475   13.8570 C.2     1  UNL1        0.1007
     17 C          63.3265   87.0670   12.8576 C.2     1  UNL1        0.0223
     18 C          62.5705   86.9388   11.5685 C.3     1  UNL1        0.0706
     19 C          63.5692   84.5659   13.7690 C.ar    1  UNL1        0.0193
     20 C          62.5349   83.9071   14.6327 C.ar    1  UNL1        0.0038
     21 C          62.3174   82.4255   14.5447 C.ar    1  UNL1        0.0297
     22 C          63.1343   81.6028   13.5930 C.ar    1  UNL1        0.1401
     23 F          62.9169   80.1213   13.5049 F       1  UNL1       -0.2042
     24 C          64.1686   82.2617   12.7292 C.ar    1  UNL1        0.0297
     25 C          64.3861   83.7432   12.8173 C.ar    1  UNL1        0.0038
     26 C          58.9095   86.3567    7.8188 C.3     1  UNL1        0.0696
     27 S          58.9894   87.6681    8.5426 S.3     1  UNL1       -0.1309
     28 C          60.5332   91.6011    5.2886 C.3     1  UNL1        0.1587
     29 C          59.7175   92.1908    4.1764 C.2     1  UNL1        0.2423
     30 O          58.2489   92.4287    4.3682 O.2     1  UNL1       -0.2733
     31 N          60.3703   92.5427    2.8726 N.am    1  UNL1       -0.2740
     32 C          59.5545   93.1324    1.7604 C.3     1  UNL1        0.1196
     33 C          60.2073   93.4842    0.4566 C.2     1  UNL1       -0.0089
     34 C          61.6758   93.2464    0.2648 C.2     1  UNL1       -0.0231
     35 C          62.4916   92.6567    1.3769 C.3     1  UNL1        0.0476
     36 C          61.8388   92.3049    2.6808 C.3     1  UNL1        0.0984
     37 C          62.3286   93.5982   -1.0391 C.ar    1  UNL1       -0.0042
     38 C          61.5811   93.4127   -2.3262 C.ar    1  UNL1       -0.0002
     39 C          62.2338   93.7646   -3.6301 C.ar    1  UNL1        0.0030
     40 C          63.6342   94.3019   -3.6468 C.ar    1  UNL1        0.0358
     41 C          64.3817   94.4874   -2.3596 C.ar    1  UNL1        0.0030
     42 C          63.7289   94.1356   -1.0558 C.ar    1  UNL1       -0.0002
     43 C          64.2870   94.6537   -4.9507 C.ar    1  UNL1        0.1623
     44 N          63.9568   95.9503   -5.6289 N.ar    1  UNL1       -0.2250
     45 C          64.6096   96.3022   -6.9329 C.ar    1  UNL1        0.1022
     46 C          65.5925   95.3575   -7.5584 C.ar    1  UNL1        0.0414
     47 C          65.9227   94.0610   -6.8802 C.ar    1  UNL1        0.1022
     48 N          65.2699   93.7091   -5.5763 N.ar    1  UNL1       -0.2250
@<TRIPOS>BOND
     1    26    27    1
     2     1    27    1
     3     1     6    1
     4     6     7    2
     5     6     8   am
     6     8    10    1
     7    10    11    2
     8    11    12    1
     9    12    13    2
    10    13    14    1
    11    14    15    2
    12    15    16    1
    13    16    19    1
    14    19    20   ar
    15    20    21   ar
    16    21    22   ar
    17    22    23    1
    18    22    24   ar
    19    24    25   ar
    20    16    17    2
    21    17    18    1
    22     1     2    1
    23     2     3    1
    24     3     4    1
    25     4    28    1
    26    28    29    1
    27    29    30    2
    28    29    31   am
    29    31    32    1
    30    32    33    1
    31    33    34    2
    32    34    37    1
    33    37    38   ar
    34    38    39   ar
    35    39    40   ar
    36    40    43    1
    37    43    44   ar
    38    44    45   ar
    39    45    46   ar
    40    46    47   ar
    41    47    48   ar
    42    40    41   ar
    43    41    42   ar
    44    34    35    1
    45    35    36    1
    46     4     5    1
    47     5     1    1
    48    18    10    1
    49    36    31    1
    50    17    13    1
    51    42    37   ar
    52    25    19   ar
    53    48    43   ar
    54     8     9    1
@<TRIPOS>MOLECULE
*****
 48 54 0 0 0
SMALL
GASTEIGER

@<TRIPOS>ATOM
      1 C          65.9157   92.5463   11.9019 C.3     1  UNL1        0.1239
      2 C          67.2683   93.1403   12.1617 C.3     1  UNL1        0.0374
      3 C          67.4094   93.3424   13.6413 C.3     1  UNL1        0.0739
      4 N          66.1439   92.8733   14.2959 N.3     1  UNL1       -0.2638
      5 C          65.2208   92.3813   13.2209 C.3     1  UNL1        0.0913
      6 C          64.6531   91.9613   11.3418 C.2     1  UNL1        0.2357
      7 O          64.1302   92.4343   10.0179 O.2     1  UNL1       -0.2739
      8 N          63.9135   90.9032   12.1056 N.am    1  UNL1       -0.2864
      9 H          64.2568   90.5927   12.9745 H       1  UNL1        0.1546
     10 C          62.6510   90.3181   11.5455 C.2     1  UNL1        0.0320
     11 C          61.4176   91.1643   11.4331 C.2     1  UNL1        0.0122
     12 C          60.1551   90.5792   10.8730 C.2     1  UNL1        0.0216
     13 C          60.1260   89.1479   10.4253 C.2     1  UNL1        0.1008
     14 N          59.0355   88.3022    9.8372 N.2     1  UNL1       -0.1483
     15 N          59.5950   86.9333    9.5861 N.2     1  UNL1       -0.1483
     16 C          61.0312   86.9330   10.0190 C.2     1  UNL1        0.1007
     17 C          61.3593   88.3016   10.5377 C.2     1  UNL1        0.0223
     18 C          62.6218   88.8867   11.0977 C.3     1  UNL1        0.0706
     19 C          61.9738   85.7684    9.9461 C.ar    1  UNL1        0.0193
     20 C          62.7680   85.5234    8.6974 C.ar    1  UNL1        0.0038
     21 C          63.7106   84.3588    8.6245 C.ar    1  UNL1        0.0297
     22 C          63.8590   83.4393    9.8002 C.ar    1  UNL1        0.1401
     23 F          64.8016   82.2747    9.7272 F       1  UNL1       -0.2042
     24 C          63.0648   83.6843   11.0488 C.ar    1  UNL1        0.0297
     25 C          62.1222   84.8488   11.1218 C.ar    1  UNL1        0.0038
     26 C          67.7788   92.3278   10.1045 C.3     1  UNL1        0.0696
     27 S          66.3466   92.5890   10.4658 S.3     1  UNL1       -0.1309
     28 C          65.8527   92.8928   15.7672 C.3     1  UNL1        0.1587
     29 C          64.5996   92.2571   16.2923 C.2     1  UNL1        0.2423
     30 O          63.6293   93.0672   17.0998 O.2     1  UNL1       -0.2733
     31 N          64.3169   90.8114   16.0098 N.am    1  UNL1       -0.2740
     32 C          63.0638   90.1757   16.5348 C.3     1  UNL1        0.1196
     33 C          62.7811   88.7299   16.2523 C.2     1  UNL1       -0.0089
     34 C          63.7513   87.9198   15.4448 C.2     1  UNL1       -0.0231
     35 C          65.0044   88.5555   14.9197 C.3     1  UNL1        0.0476
     36 C          65.2872   90.0012   15.2022 C.3     1  UNL1        0.0984
     37 C          63.4686   86.4740   15.1623 C.ar    1  UNL1       -0.0042
     38 C          64.2678   85.7422   14.1251 C.ar    1  UNL1       -0.0002
     39 C          63.9851   84.2965   13.8426 C.ar    1  UNL1        0.0030
     40 C          62.9031   83.5825   14.5973 C.ar    1  UNL1        0.0358
     41 C          62.1039   84.3143   15.6345 C.ar    1  UNL1        0.0030
     42 C          62.3867   85.7600   15.9170 C.ar    1  UNL1       -0.0002
     43 C          62.6204   82.1367   14.3148 C.ar    1  UNL1        0.1623
     44 N          63.7508   81.1938   14.0267 N.ar    1  UNL1       -0.2250
     45 C          63.4681   79.7480   13.7442 C.ar    1  UNL1        0.1022
     46 C          62.0549   79.2451   13.7498 C.ar    1  UNL1        0.0414
     47 C          60.9245   80.1881   14.0380 C.ar    1  UNL1        0.1022
     48 N          61.2072   81.6338   14.3205 N.ar    1  UNL1       -0.2250
@<TRIPOS>BOND
     1    26    27    1
     2     1    27    1
     3     1     6    1
     4     6     7    2
     5     6     8   am
     6     8    10    1
     7    10    11    2
     8    11    12    1
     9    12    13    2
    10    13    14    1
    11    14    15    2
    12    15    16    1
    13    16    19    1
    14    19    20   ar
    15    20    21   ar
    16    21    22   ar
    17    22    23    1
    18    22    24   ar
    19    24    25   ar
    20    16    17    2
    21    17    18    1
    22     1     2    1
    23     2     3    1
    24     3     4    1
    25     4    28    1
    26    28    29    1
    27    29    30    2
    28    29    31   am
    29    31    32    1
    30    32    33    1
    31    33    34    2
    32    34    37    1
    33    37    38   ar
    34    38    39   ar
    35    39    40   ar
    36    40    43    1
    37    43    44   ar
    38    44    45   ar
    39    45    46   ar
    40    46    47   ar
    41    47    48   ar
    42    40    41   ar
    43    41    42   ar
    44    34    35    1
    45    35    36    1
    46     4     5    1
    47     5     1    1
    48    18    10    1
    49    36    31    1
    50    17    13    1
    51    42    37   ar
    52    25    19   ar
    53    48    43   ar
    54     8     9    1
@<TRIPOS>MOLECULE
*****
 48 54 0 0 0
SMALL
GASTEIGER

@<TRIPOS>ATOM
      1 C          63.6468   85.1164   13.1735 C.3     1  UNL1        0.1239
      2 C          63.4156   83.7246   12.6643 C.3     1  UNL1        0.0374
      3 C          62.3848   83.7941   11.5769 C.3     1  UNL1        0.0739
      4 N          61.9790   85.2290   11.4140 N.3     1  UNL1       -0.2638
      5 C          62.7589   86.0462   12.4007 C.3     1  UNL1        0.0913
      6 C          64.0828   86.3687   13.8749 C.2     1  UNL1        0.2357
      7 O          65.1417   86.3044   14.9354 O.2     1  UNL1       -0.2739
      8 N          63.4600   87.6851   13.5158 N.am    1  UNL1       -0.2864
      9 H          62.7650   87.7273   12.8197 H       1  UNL1        0.1546
     10 C          63.8959   88.9373   14.2172 C.2     1  UNL1        0.0320
     11 C          63.5216   89.1623   15.6522 C.2     1  UNL1        0.0122
     12 C          63.9575   90.4145   16.3535 C.2     1  UNL1        0.0216
     13 C          64.7679   91.4417   15.6199 C.2     1  UNL1        0.1008
     14 N          65.3366   92.7629   16.0456 N.2     1  UNL1       -0.1483
     15 N          66.0624   93.3544   14.8738 N.2     1  UNL1       -0.1483
     16 C          65.9423   92.3988   13.7238 C.2     1  UNL1        0.1007
     17 C          65.1423   91.2167   14.1849 C.2     1  UNL1        0.0223
     18 C          64.7063   89.9645   13.4836 C.3     1  UNL1        0.0706
     19 C          66.5207   92.5914   12.3533 C.ar    1  UNL1        0.0193
     20 C          67.7470   91.8313   11.9431 C.ar    1  UNL1        0.0038
     21 C          68.3254   92.0239   10.5726 C.ar    1  UNL1        0.0297
     22 C          67.6775   92.9767    9.6122 C.ar    1  UNL1        0.1401
     23 F          68.2559   93.1694    8.2417 F       1  UNL1       -0.2042
     24 C          66.4512   93.7369   10.0223 C.ar    1  UNL1        0.0297
     25 C          65.8728   93.5442   11.3929 C.ar    1  UNL1        0.0038
     26 C          64.2291   83.2088   14.8384 C.3     1  UNL1        0.0696
     27 S          64.6259   84.4485   14.0929 S.3     1  UNL1       -0.1309
     28 C          60.9702   85.7543   10.4360 C.3     1  UNL1        0.1587
     29 C          60.4559   87.1571   10.5697 C.2     1  UNL1        0.2423
     30 O          60.0838   87.6940   11.9200 O.2     1  UNL1       -0.2733
     31 N          60.3137   88.0229    9.3531 N.am    1  UNL1       -0.2740
     32 C          59.7994   89.4256    9.4868 C.3     1  UNL1        0.1196
     33 C          59.6571   90.2914    8.2702 C.2     1  UNL1       -0.0089
     34 C          60.0292   89.7546    6.9199 C.2     1  UNL1       -0.0231
     35 C          60.5435   88.3518    6.7862 C.3     1  UNL1        0.0476
     36 C          60.6857   87.4860    8.0028 C.3     1  UNL1        0.0984
     37 C          59.8870   90.6204    5.7033 C.ar    1  UNL1       -0.0042
     38 C          58.5361   91.1350    5.3027 C.ar    1  UNL1       -0.0002
     39 C          58.3939   92.0008    4.0861 C.ar    1  UNL1        0.0030
     40 C          59.6025   92.3520    3.2700 C.ar    1  UNL1        0.0358
     41 C          60.9533   91.8373    3.6706 C.ar    1  UNL1        0.0030
     42 C          61.0956   90.9715    4.8872 C.ar    1  UNL1       -0.0002
     43 C          59.4603   93.2178    2.0534 C.ar    1  UNL1        0.1623
     44 N          58.8453   92.6604    0.8040 N.ar    1  UNL1       -0.2250
     45 C          58.7031   93.5262   -0.4127 C.ar    1  UNL1        0.1022
     46 C          59.1758   94.9494   -0.3799 C.ar    1  UNL1        0.0414
     47 C          59.7907   95.5067    0.8696 C.ar    1  UNL1        0.1022
     48 N          59.9329   94.6409    2.0862 N.ar    1  UNL1       -0.2250
@<TRIPOS>BOND
     1    26    27    1
     2     1    27    1
     3     1     6    1
     4     6     7    2
     5     6     8   am
     6     8    10    1
     7    10    11    2
     8    11    12    1
     9    12    13    2
    10    13    14    1
    11    14    15    2
    12    15    16    1
    13    16    19    1
    14    19    20   ar
    15    20    21   ar
    16    21    22   ar
    17    22    23    1
    18    22    24   ar
    19    24    25   ar
    20    16    17    2
    21    17    18    1
    22     1     2    1
    23     2     3    1
    24     3     4    1
    25     4    28    1
    26    28    29    1
    27    29    30    2
    28    29    31   am
    29    31    32    1
    30    32    33    1
    31    33    34    2
    32    34    37    1
    33    37    38   ar
    34    38    39   ar
    35    39    40   ar
    36    40    43    1
    37    43    44   ar
    38    44    45   ar
    39    45    46   ar
    40    46    47   ar
    41    47    48   ar
    42    40    41   ar
    43    41    42   ar
    44    34    35    1
    45    35    36    1
    46     4     5    1
    47     5     1    1
    48    18    10    1
    49    36    31    1
    50    17    13    1
    51    42    37   ar
    52    25    19   ar
    53    48    43   ar
    54     8     9    1
@<TRIPOS>MOLECULE
*****
 48 54 0 0 0
SMALL
GASTEIGER

@<TRIPOS>ATOM
      1 C          60.2605   88.8888   10.3111 C.3     1  UNL1        0.1239
      2 C          59.3001   87.9336    9.6666 C.3     1  UNL1        0.0374
      3 C          59.3909   88.1171    8.1807 C.3     1  UNL1        0.0739
      4 N          60.4072   89.1857    7.9068 N.3     1  UNL1       -0.2638
      5 C          60.9447   89.6626    9.2235 C.3     1  UNL1        0.0913
      6 C          61.1151   89.7185   11.2229 C.2     1  UNL1        0.2357
      7 O          60.7918   91.1668   11.4419 O.2     1  UNL1       -0.2739
      8 N          62.2930   89.0999   11.9155 N.am    1  UNL1       -0.2864
      9 H          62.5053   88.1494   11.7717 H       1  UNL1        0.1546
     10 C          63.1477   89.9296   12.8273 C.2     1  UNL1        0.0320
     11 C          63.0400   89.7627   14.3140 C.2     1  UNL1        0.0122
     12 C          63.8947   90.5923   15.2257 C.2     1  UNL1        0.0216
     13 C          64.8570   91.5890   14.6506 C.2     1  UNL1        0.1008
     14 N          65.8214   92.5402   15.2950 N.2     1  UNL1       -0.1483
     15 N          66.5251   93.2950   14.2064 N.2     1  UNL1       -0.1483
     16 C          65.9956   92.8103   12.8893 C.2     1  UNL1        0.1007
     17 C          64.9646   91.7559   13.1639 C.2     1  UNL1        0.0223
     18 C          64.1100   90.9262   12.2522 C.3     1  UNL1        0.0706
     19 C          66.4221   93.2949   11.5354 C.ar    1  UNL1        0.0193
     20 C          65.9779   94.6416   11.0465 C.ar    1  UNL1        0.0038
     21 C          66.4045   95.1262    9.6926 C.ar    1  UNL1        0.0297
     22 C          67.2752   94.2641    8.8274 C.ar    1  UNL1        0.1401
     23 F          67.7018   94.7487    7.4734 F       1  UNL1       -0.2042
     24 C          67.7194   92.9174    9.3162 C.ar    1  UNL1        0.0297
     25 C          67.2929   92.4328   10.6702 C.ar    1  UNL1        0.0038
     26 C          58.6654   88.9731   12.3601 C.3     1  UNL1        0.0696
     27 S          59.7549   88.2884   11.5894 S.3     1  UNL1       -0.1309
     28 C          60.8146   89.6890    6.5538 C.3     1  UNL1        0.1587
     29 C          59.9105   90.6140    5.7942 C.2     1  UNL1        0.2423
     30 O          58.5060   90.8456    6.2670 O.2     1  UNL1       -0.2733
     31 N          60.4109   91.3072    4.5617 N.am    1  UNL1       -0.2740
     32 C          59.5068   92.2322    3.8021 C.3     1  UNL1        0.1196
     33 C          60.0072   92.9254    2.5696 C.2     1  UNL1       -0.0089
     34 C          61.4117   92.6938    2.0967 C.2     1  UNL1       -0.0231
     35 C          62.3159   91.7689    2.8564 C.3     1  UNL1        0.0476
     36 C          61.8154   91.0756    4.0888 C.3     1  UNL1        0.0984
     37 C          61.9122   93.3871    0.8643 C.ar    1  UNL1       -0.0042
     38 C          63.3592   93.7657    0.7520 C.ar    1  UNL1       -0.0002
     39 C          63.8597   94.4590   -0.4804 C.ar    1  UNL1        0.0030
     40 C          62.9130   94.7736   -1.6006 C.ar    1  UNL1        0.0358
     41 C          61.4659   94.3950   -1.4883 C.ar    1  UNL1        0.0030
     42 C          60.9655   93.7017   -0.2559 C.ar    1  UNL1       -0.0002
     43 C          63.4134   95.4669   -2.8331 C.ar    1  UNL1        0.1623
     44 N          62.4609   95.8091   -3.9402 N.ar    1  UNL1       -0.2250
     45 C          62.9613   96.5024   -5.1727 C.ar    1  UNL1        0.1022
     46 C          64.4142   96.8534   -5.2980 C.ar    1  UNL1        0.0414
     47 C          65.3667   96.5113   -4.1909 C.ar    1  UNL1        0.1022
     48 N          64.8663   95.8180   -2.9585 N.ar    1  UNL1       -0.2250
@<TRIPOS>BOND
     1    26    27    1
     2     1    27    1
     3     1     6    1
     4     6     7    2
     5     6     8   am
     6     8    10    1
     7    10    11    2
     8    11    12    1
     9    12    13    2
    10    13    14    1
    11    14    15    2
    12    15    16    1
    13    16    19    1
    14    19    20   ar
    15    20    21   ar
    16    21    22   ar
    17    22    23    1
    18    22    24   ar
    19    24    25   ar
    20    16    17    2
    21    17    18    1
    22     1     2    1
    23     2     3    1
    24     3     4    1
    25     4    28    1
    26    28    29    1
    27    29    30    2
    28    29    31   am
    29    31    32    1
    30    32    33    1
    31    33    34    2
    32    34    37    1
    33    37    38   ar
    34    38    39   ar
    35    39    40   ar
    36    40    43    1
    37    43    44   ar
    38    44    45   ar
    39    45    46   ar
    40    46    47   ar
    41    47    48   ar
    42    40    41   ar
    43    41    42   ar
    44    34    35    1
    45    35    36    1
    46     4     5    1
    47     5     1    1
    48    18    10    1
    49    36    31    1
    50    17    13    1
    51    42    37   ar
    52    25    19   ar
    53    48    43   ar
    54     8     9    1
@<TRIPOS>MOLECULE
*****
 48 54 0 0 0
SMALL
GASTEIGER

@<TRIPOS>ATOM
      1 C          65.0249   92.4960   11.9085 C.3     1  UNL1        0.1239
      2 C          66.1298   93.5086   11.8465 C.3     1  UNL1        0.0374
      3 C          66.5841   93.7853   13.2490 C.3     1  UNL1        0.0739
      4 N          65.7600   92.9437   14.1777 N.3     1  UNL1       -0.2638
      5 C          64.7965   92.1468   13.3492 C.3     1  UNL1        0.0913
      6 C          63.9195   91.5133   11.6582 C.2     1  UNL1        0.2357
      7 O          62.9726   91.1520   12.7641 O.2     1  UNL1       -0.2739
      8 N          63.7611   90.8920   10.3022 N.am    1  UNL1       -0.2864
      9 H          64.3825   91.1291    9.5764 H       1  UNL1        0.1546
     10 C          62.6557   89.9093   10.0520 C.2     1  UNL1        0.0320
     11 C          62.4576   88.7501   10.9831 C.2     1  UNL1        0.0122
     12 C          61.3522   87.7676   10.7329 C.2     1  UNL1        0.0216
     13 C          60.4449   87.9442    9.5515 C.2     1  UNL1        0.1008
     14 N          59.2785   87.1433    9.0532 N.2     1  UNL1       -0.1483
     15 N          58.7558   87.8076    7.8141 N.2     1  UNL1       -0.1483
     16 C          59.5991   89.0189    7.5466 C.2     1  UNL1        0.1007
     17 C          60.6430   89.1033    8.6204 C.2     1  UNL1        0.0223
     18 C          61.7484   90.0859    8.8706 C.3     1  UNL1        0.0706
     19 C          59.4284   89.9776    6.4056 C.ar    1  UNL1        0.0193
     20 C          60.6256   90.4407    5.6296 C.ar    1  UNL1        0.0038
     21 C          60.4549   91.3994    4.4887 C.ar    1  UNL1        0.0297
     22 C          59.0871   91.8950    4.1236 C.ar    1  UNL1        0.1401
     23 F          58.9164   92.8537    2.9827 F       1  UNL1       -0.2042
     24 C          57.8899   91.4319    4.8997 C.ar    1  UNL1        0.0297
     25 C          58.0605   90.4732    6.0406 C.ar    1  UNL1        0.0038
     26 C          66.1464   93.3576    9.7291 C.3     1  UNL1        0.0696
     27 S          65.0223   92.6397   10.4154 S.3     1  UNL1       -0.1309
     28 C          65.8788   92.9056   15.6725 C.3     1  UNL1        0.1587
     29 C          64.8802   92.1355   16.4848 C.2     1  UNL1        0.2423
     30 O          64.2266   92.7759   17.6733 O.2     1  UNL1       -0.2733
     31 N          64.5353   90.7250   16.1086 N.am    1  UNL1       -0.2740
     32 C          63.5368   89.9549   16.9209 C.3     1  UNL1        0.1196
     33 C          63.1919   88.5444   16.5447 C.2     1  UNL1       -0.0089
     34 C          63.8454   87.9039   15.3562 C.2     1  UNL1       -0.0231
     35 C          64.8440   88.6740   14.5439 C.3     1  UNL1        0.0476
     36 C          65.1889   90.0845   14.9201 C.3     1  UNL1        0.0984
     37 C          63.5005   86.4935   14.9800 C.ar    1  UNL1       -0.0042
     38 C          63.5574   86.0651   13.5436 C.ar    1  UNL1       -0.0002
     39 C          63.2125   84.6546   13.1674 C.ar    1  UNL1        0.0030
     40 C          62.8107   83.6725   14.2276 C.ar    1  UNL1        0.0358
     41 C          62.7538   84.1009   15.6640 C.ar    1  UNL1        0.0030
     42 C          63.0987   85.5114   16.0402 C.ar    1  UNL1       -0.0002
     43 C          62.4658   82.2620   13.8514 C.ar    1  UNL1        0.1623
     44 N          61.3425   81.5532   14.5484 N.ar    1  UNL1       -0.2250
     45 C          60.9975   80.1426   14.1722 C.ar    1  UNL1        0.1022
     46 C          61.7759   79.4409   13.0990 C.ar    1  UNL1        0.0414
     47 C          62.8992   80.1498   12.4020 C.ar    1  UNL1        0.1022
     48 N          63.2441   81.5603   12.7782 N.ar    1  UNL1       -0.2250
@<TRIPOS>BOND
     1    26    27    1
     2     1    27    1
     3     1     6    1
     4     6     7    2
     5     6     8   am
     6     8    10    1
     7    10    11    2
     8    11    12    1
     9    12    13    2
    10    13    14    1
    11    14    15    2
    12    15    16    1
    13    16    19    1
    14    19    20   ar
    15    20    21   ar
    16    21    22   ar
    17    22    23    1
    18    22    24   ar
    19    24    25   ar
    20    16    17    2
    21    17    18    1
    22     1     2    1
    23     2     3    1
    24     3     4    1
    25     4    28    1
    26    28    29    1
    27    29    30    2
    28    29    31   am
    29    31    32    1
    30    32    33    1
    31    33    34    2
    32    34    37    1
    33    37    38   ar
    34    38    39   ar
    35    39    40   ar
    36    40    43    1
    37    43    44   ar
    38    44    45   ar
    39    45    46   ar
    40    46    47   ar
    41    47    48   ar
    42    40    41   ar
    43    41    42   ar
    44    34    35    1
    45    35    36    1
    46     4     5    1
    47     5     1    1
    48    18    10    1
    49    36    31    1
    50    17    13    1
    51    42    37   ar
    52    25    19   ar
    53    48    43   ar
    54     8     9    1
@<TRIPOS>MOLECULE
*****
 48 54 0 0 0
SMALL
GASTEIGER

@<TRIPOS>ATOM
      1 C          60.3054   89.1551   10.1090 C.3     1  UNL1        0.1239
      2 C          59.4876   90.4113   10.0526 C.3     1  UNL1        0.0374
      3 C          59.1998   90.7126    8.6116 C.3     1  UNL1        0.0739
      4 N          59.8397   89.6426    7.7776 N.3     1  UNL1       -0.2638
      5 C          60.5230   88.6800    8.7030 C.3     1  UNL1        0.0913
      6 C          61.1131   87.9453   10.4755 C.2     1  UNL1        0.2357
      7 O          61.4469   87.6736   11.9124 O.2     1  UNL1       -0.2739
      8 N          61.5867   87.0074    9.4051 N.am    1  UNL1       -0.2864
      9 H          61.3676   87.1857    8.4620 H       1  UNL1        0.1546
     10 C          62.3944   85.7976    9.7716 C.2     1  UNL1        0.0320
     11 C          62.9039   84.8825    8.6979 C.2     1  UNL1        0.0122
     12 C          63.7115   83.6728    9.0644 C.2     1  UNL1        0.0216
     13 C          64.0096   83.3782   10.5046 C.2     1  UNL1        0.1008
     14 N          64.7742   82.2693   11.1649 N.2     1  UNL1       -0.1483
     15 N          64.7372   82.4991   12.6467 N.2     1  UNL1       -0.1483
     16 C          63.9497   83.7500   12.9023 C.2     1  UNL1        0.1007
     17 C          63.5000   84.2932   11.5784 C.2     1  UNL1        0.0223
     18 C          62.6924   85.5029   11.2119 C.3     1  UNL1        0.0706
     19 C          63.6623   84.3519   14.2458 C.ar    1  UNL1        0.0193
     20 C          62.5016   83.8568   15.0567 C.ar    1  UNL1        0.0038
     21 C          62.2142   84.4587   16.4002 C.ar    1  UNL1        0.0297
     22 C          63.0876   85.5557   16.9329 C.ar    1  UNL1        0.1401
     23 F          62.8002   86.1576   18.2765 F       1  UNL1       -0.2042
     24 C          64.2483   86.0508   16.1220 C.ar    1  UNL1        0.0297
     25 C          64.5357   85.4489   14.7785 C.ar    1  UNL1        0.0038
     26 C          59.0838   90.0819   12.2063 C.3     1  UNL1        0.0696
     27 S          60.2567   89.3772   11.5917 S.3     1  UNL1       -0.1309
     28 C          59.8027   89.5512    6.2808 C.3     1  UNL1        0.1587
     29 C          59.1638   90.6456    5.4782 C.2     1  UNL1        0.2423
     30 O          57.7525   91.0626    5.7685 O.2     1  UNL1       -0.2733
     31 N          59.9362   91.3229    4.3852 N.am    1  UNL1       -0.2740
     32 C          59.2974   92.4172    3.5826 C.3     1  UNL1        0.1196
     33 C          60.0698   93.0946    2.4896 C.2     1  UNL1       -0.0089
     34 C          61.4811   92.6776    2.1992 C.2     1  UNL1       -0.0231
     35 C          62.1200   91.5833    3.0019 C.3     1  UNL1        0.0476
     36 C          61.3475   90.9059    4.0948 C.3     1  UNL1        0.0984
     37 C          62.2535   93.3549    1.1063 C.ar    1  UNL1       -0.0042
     38 C          61.8798   93.1270   -0.3284 C.ar    1  UNL1       -0.0002
     39 C          62.6522   93.8043   -1.4214 C.ar    1  UNL1        0.0030
     40 C          63.7983   94.7096   -1.0797 C.ar    1  UNL1        0.0358
     41 C          64.1721   94.9375    0.3550 C.ar    1  UNL1        0.0030
     42 C          63.3996   94.2602    1.4480 C.ar    1  UNL1       -0.0002
     43 C          64.5708   95.3869   -2.1726 C.ar    1  UNL1        0.1623
     44 N          64.1113   95.2748   -3.5961 N.ar    1  UNL1       -0.2250
     45 C          64.8838   95.9521   -4.6892 C.ar    1  UNL1        0.1022
     46 C          66.1156   96.7416   -4.3586 C.ar    1  UNL1        0.0414
     47 C          66.5750   96.8537   -2.9351 C.ar    1  UNL1        0.1022
     48 N          65.8026   96.1764   -1.8422 N.ar    1  UNL1       -0.2250
@<TRIPOS>BOND
     1    26    27    1
     2     1    27    1
     3     1     6    1
     4     6     7    2
     5     6     8   am
     6     8    10    1
     7    10    11    2
     8    11    12    1
     9    12    13    2
    10    13    14    1
    11    14    15    2
    12    15    16    1
    13    16    19    1
    14    19    20   ar
    15    20    21   ar
    16    21    22   ar
    17    22    23    1
    18    22    24   ar
    19    24    25   ar
    20    16    17    2
    21    17    18    1
    22     1     2    1
    23     2     3    1
    24     3     4    1
    25     4    28    1
    26    28    29    1
    27    29    30    2
    28    29    31   am
    29    31    32    1
    30    32    33    1
    31    33    34    2
    32    34    37    1
    33    37    38   ar
    34    38    39   ar
    35    39    40   ar
    36    40    43    1
    37    43    44   ar
    38    44    45   ar
    39    45    46   ar
    40    46    47   ar
    41    47    48   ar
    42    40    41   ar
    43    41    42   ar
    44    34    35    1
    45    35    36    1
    46     4     5    1
    47     5     1    1
    48    18    10    1
    49    36    31    1
    50    17    13    1
    51    42    37   ar
    52    25    19   ar
    53    48    43   ar
    54     8     9    1
