@<TRIPOS>MOLECULE
*****
 44 49 0 0 0
SMALL
GASTEIGER

@<TRIPOS>ATOM
      1 C          59.1958   89.8370    6.4465 C.2     1  UNL1        0.2461
      2 O          57.7934   89.3474    6.6555 O.2     1  UNL1       -0.2701
      3 N          60.3018   89.3451    7.3324 N.am    1  UNL1       -0.2964
      4 H          61.2222   89.6665    7.1953 H       1  UNL1        0.1501
      5 C          63.7360   91.4698    3.0536 C.3     1  UNL1        0.1305
      6 N          62.4129   92.1555    2.8830 N.ar    1  UNL1       -0.3242
      7 C          62.1078   93.2524    1.9065 C.ar    1  UNL1        0.0753
      8 C          60.6689   93.6395    2.0789 C.ar    1  UNL1       -0.0038
      9 C          60.0847   92.7817    3.1620 C.ar    1  UNL1        0.0133
     10 C          58.7105   92.7173    3.7598 C.ar    1  UNL1        0.0013
     11 C          58.4143   91.7358    4.8547 C.ar    1  UNL1        0.0046
     12 C          59.4921   90.8186    5.3516 C.ar    1  UNL1        0.0548
     13 C          60.8663   90.8830    4.7538 C.ar    1  UNL1        0.0217
     14 C          61.1626   91.8645    3.6589 C.ar    1  UNL1        0.0598
     15 C          63.0722   93.8563    0.9291 C.ar    1  UNL1        0.1158
     16 C          64.1943   94.7221    1.4203 C.ar    1  UNL1        0.1194
     17 N          65.1587   95.3260    0.4430 N.ar    1  UNL1       -0.2391
     18 C          65.0011   95.0641   -1.0255 C.ar    1  UNL1        0.1195
     19 C          63.8791   94.1982   -1.5167 C.ar    1  UNL1        0.1195
     20 N          62.9146   93.5944   -0.5394 N.ar    1  UNL1       -0.2392
     21 C          59.9418   94.6984    1.3043 C.3     1  UNL1        0.0238
     22 C          59.0423   94.4679    0.1263 C.3     1  UNL1        0.0044
     23 C          58.5310   95.8008   -0.3345 C.3     1  UNL1        0.0003
     24 C          59.1147   96.8550    0.5589 C.3     1  UNL1        0.0003
     25 C          59.9865   96.1736    1.5717 C.3     1  UNL1        0.0044
     26 C          60.0054   88.3636    8.4273 C.3     1  UNL1        0.1260
     27 C          59.2284   87.5200    7.4607 C.3     1  UNL1        0.0270
     28 C          58.9320   86.5384    8.5555 C.3     1  UNL1        0.0043
     29 C          59.7091   87.3820    9.5221 C.3     1  UNL1        0.0270
     30 C          60.7825   89.2072    9.3940 C.2     1  UNL1        0.2419
     31 O          60.1975   90.4885    9.9099 O.2     1  UNL1       -0.2731
     32 N          62.1445   88.7695    9.8448 N.am    1  UNL1       -0.2826
     33 H          62.5285   87.9286    9.5063 H       1  UNL1        0.1549
     34 C          62.9216   89.6132   10.8116 C.ar    1  UNL1        0.0503
     35 C          63.5005   90.9234   10.3665 C.ar    1  UNL1        0.0147
     36 C          64.2775   91.7671   11.3331 C.ar    1  UNL1        0.0013
     37 C          64.4756   91.3006   12.7449 C.ar    1  UNL1        0.0001
     38 C          63.8967   89.9903   13.1900 C.ar    1  UNL1        0.0013
     39 C          63.1196   89.1466   12.2233 C.ar    1  UNL1        0.0147
     40 C          65.2526   92.1442   13.7116 C.2     1  UNL1        0.0012
     41 C          66.6094   91.7003   14.1723 C.2     1  UNL1        0.0151
     42 C          67.3864   92.5440   15.1389 C.2     1  UNL1        0.0729
     43 O          68.7593   93.0279   14.7768 O.co2   1  UNL1       -0.5446
     44 O          66.7905   92.9038   16.4676 O.co2   1  UNL1       -0.5446
@<TRIPOS>UNITY_ATOM_ATTR
43 1
charge -1
@<TRIPOS>BOND
     1     5     6    1
     2     6     7   ar
     3     7    15    1
     4    15    16   ar
     5    16    17   ar
     6    17    18   ar
     7    18    19   ar
     8    19    20   ar
     9     7     8   ar
    10     8    21    1
    11    21    22    1
    12    22    23    1
    13    23    24    1
    14    24    25    1
    15     8     9   ar
    16     9    10   ar
    17    10    11   ar
    18    11    12   ar
    19    12     1    1
    20     1     2    2
    21     1     3   am
    22     3    26    1
    23    26    30    1
    24    30    31    2
    25    30    32   am
    26    32    34    1
    27    34    35   ar
    28    35    36   ar
    29    36    37   ar
    30    37    40    1
    31    40    41    2
    32    41    42    1
    33    42    43   ar
    34    42    44   ar
    35    37    38   ar
    36    38    39   ar
    37    26    27    1
    38    27    28    1
    39    28    29    1
    40    12    13   ar
    41    13    14   ar
    42    14     6   ar
    43    20    15   ar
    44    25    21    1
    45    14     9   ar
    46    29    26    1
    47    39    34   ar
    48     3     4    1
    49    32    33    1
@<TRIPOS>MOLECULE
*****
 44 49 0 0 0
SMALL
GASTEIGER

@<TRIPOS>ATOM
      1 C          61.1230   89.4394    9.8788 C.2     1  UNL1        0.2461
      2 O          60.1585   88.9064   10.8965 O.2     1  UNL1       -0.2701
      3 N          60.9745   89.0616    8.4348 N.am    1  UNL1       -0.2964
      4 H          61.6075   89.4114    7.7669 H       1  UNL1        0.1501
      5 C          64.8674   90.0665   14.3930 C.3     1  UNL1        0.1305
      6 N          64.9291   91.0386   13.2522 N.ar    1  UNL1       -0.3242
      7 C          65.8752   92.1962   13.1305 C.ar    1  UNL1        0.0753
      8 C          65.5863   92.8967   11.8360 C.ar    1  UNL1       -0.0038
      9 C          64.4617   92.1721   11.1576 C.ar    1  UNL1        0.0133
     10 C          63.7550   92.4096    9.8561 C.ar    1  UNL1        0.0013
     11 C          62.6421   91.4987    9.4298 C.ar    1  UNL1        0.0046
     12 C          62.2359   90.3503   10.3051 C.ar    1  UNL1        0.0548
     13 C          62.9426   90.1128   11.6067 C.ar    1  UNL1        0.0217
     14 C          64.0555   91.0237   12.0330 C.ar    1  UNL1        0.0598
     15 C          66.9258   92.5849   14.1281 C.ar    1  UNL1        0.1158
     16 C          66.5251   93.1714   15.4492 C.ar    1  UNL1        0.1194
     17 N          67.5756   93.5602   16.4468 N.ar    1  UNL1       -0.2391
     18 C          69.0269   93.3625   16.1233 C.ar    1  UNL1        0.1195
     19 C          69.4276   92.7760   14.8021 C.ar    1  UNL1        0.1195
     20 N          68.3770   92.3873   13.8045 N.ar    1  UNL1       -0.2392
     21 C          66.2973   94.1090   11.3117 C.3     1  UNL1        0.0238
     22 C          67.2350   94.1440   10.1415 C.3     1  UNL1        0.0044
     23 C          67.7126   95.5558    9.9722 C.3     1  UNL1        0.0003
     24 C          67.0701   96.3934   11.0379 C.3     1  UNL1        0.0003
     25 C          66.1953   95.4992   11.8658 C.3     1  UNL1        0.0044
     26 C          59.8615   88.1507    8.0085 C.3     1  UNL1        0.1260
     27 C          59.3258   89.2258    7.1102 C.3     1  UNL1        0.0270
     28 C          58.2129   88.3150    6.6838 C.3     1  UNL1        0.0043
     29 C          58.7486   87.2399    7.5822 C.3     1  UNL1        0.0270
     30 C          60.3973   87.0756    8.9068 C.2     1  UNL1        0.2419
     31 O          59.4666   86.3158    9.8050 O.2     1  UNL1       -0.2731
     32 N          61.8637   86.7601    8.9070 N.am    1  UNL1       -0.2826
     33 H          62.4746   87.2587    8.3176 H       1  UNL1        0.1549
     34 C          62.3995   85.6849    9.8054 C.ar    1  UNL1        0.0503
     35 C          63.2239   84.5705    9.2324 C.ar    1  UNL1        0.0147
     36 C          63.7596   83.4954   10.1307 C.ar    1  UNL1        0.0013
     37 C          63.4709   83.5346   11.6022 C.ar    1  UNL1        0.0001
     38 C          62.6465   84.6490   12.1752 C.ar    1  UNL1        0.0013
     39 C          62.1107   85.7242   11.2768 C.ar    1  UNL1        0.0147
     40 C          64.0066   82.4594   12.5005 C.2     1  UNL1        0.0012
     41 C          63.0731   81.4530   13.1050 C.2     1  UNL1        0.0151
     42 C          63.6088   80.3778   14.0033 C.2     1  UNL1        0.0729
     43 O          64.9667   80.5260   14.6233 O.co2   1  UNL1       -0.5446
     44 O          62.7867   79.1545   14.2817 O.co2   1  UNL1       -0.5446
@<TRIPOS>UNITY_ATOM_ATTR
43 1
charge -1
@<TRIPOS>BOND
     1     5     6    1
     2     6     7   ar
     3     7    15    1
     4    15    16   ar
     5    16    17   ar
     6    17    18   ar
     7    18    19   ar
     8    19    20   ar
     9     7     8   ar
    10     8    21    1
    11    21    22    1
    12    22    23    1
    13    23    24    1
    14    24    25    1
    15     8     9   ar
    16     9    10   ar
    17    10    11   ar
    18    11    12   ar
    19    12     1    1
    20     1     2    2
    21     1     3   am
    22     3    26    1
    23    26    30    1
    24    30    31    2
    25    30    32   am
    26    32    34    1
    27    34    35   ar
    28    35    36   ar
    29    36    37   ar
    30    37    40    1
    31    40    41    2
    32    41    42    1
    33    42    43   ar
    34    42    44   ar
    35    37    38   ar
    36    38    39   ar
    37    26    27    1
    38    27    28    1
    39    28    29    1
    40    12    13   ar
    41    13    14   ar
    42    14     6   ar
    43    20    15   ar
    44    25    21    1
    45    14     9   ar
    46    29    26    1
    47    39    34   ar
    48     3     4    1
    49    32    33    1
