@<TRIPOS>MOLECULE
*****
 32 36 0 0 0
SMALL
GASTEIGER

@<TRIPOS>ATOM
      1 C          62.0353   89.4146   11.0748 C.ar    1  UNL1        0.0990
      2 C          60.7124   90.0671   10.8025 C.ar    1  UNL1        0.0207
      3 C          59.7417   89.4275    9.8546 C.ar    1  UNL1        0.0032
      4 C          60.0939   88.1354    9.1790 C.ar    1  UNL1        0.0207
      5 C          59.1231   87.4958    8.2310 C.ar    1  UNL1        0.0017
      6 C          59.4752   86.2036    7.5555 C.ar    1  UNL1        0.0032
      7 C          60.7982   85.5511    7.8279 C.ar    1  UNL1        0.0385
      8 C          61.7689   86.1907    8.7758 C.ar    1  UNL1        0.1558
      9 C          61.4167   87.4829    9.4514 C.ar    1  UNL1        0.1151
     10 N          62.3874   88.1225   10.3993 N.ar    1  UNL1       -0.2408
     11 C          65.8963   93.4584   11.6890 C.ar    1  UNL1        0.1432
     12 C          65.0992   93.1490   10.4565 C.ar    1  UNL1        0.0560
     13 C          64.1046   92.0263   10.4688 C.ar    1  UNL1        0.0846
     14 N          63.9070   91.2129   11.7135 N.ar    1  UNL1       -0.2872
     15 C          63.0060   90.0542   12.0228 C.ar    1  UNL1        0.1021
     16 C          63.2463   89.6474   13.4464 C.ar    1  UNL1        0.1195
     17 N          64.2957   90.5547   14.0170 N.ar    1  UNL1       -0.2247
     18 C          64.7041   91.5222   12.9459 C.ar    1  UNL1        0.1509
     19 C          65.6987   92.6449   12.9337 C.ar    1  UNL1        0.0743
     20 O          66.8909   94.5810   11.6767 O.3     1  UNL1       -0.4726
     21 C          67.0513   95.4277   10.4489 C.3     1  UNL1        0.2373
     22 C          67.8728   94.9300    9.2968 C.3     1  UNL1        0.1894
     23 C          68.5448   92.4223    9.2010 C.3     1  UNL1        0.1743
     24 O          68.8895   93.8484    9.5125 O.3     1  UNL1       -0.3471
     25 O          63.0917   85.5382    9.0481 O.3     1  UNL1       -0.4776
     26 C          63.2125   84.5132   10.1366 C.3     1  UNL1        0.1687
     27 C          63.9918   83.2540    9.8980 C.3     1  UNL1        0.0606
     28 C          64.1125   82.2291   10.9865 C.3     1  UNL1        0.0723
     29 N          63.4540   82.4633   12.3137 N.3     1  UNL1       -0.2973
     30 C          62.6746   83.7226   12.5524 C.3     1  UNL1        0.0723
     31 C          62.5539   84.7476   11.4639 C.3     1  UNL1        0.0606
     32 H          64.1918   82.4358   13.0174 H       1  UNL1        0.1233
@<TRIPOS>BOND
     1    23    24    1
     2    24    22    1
     3    22    21    1
     4    21    20    1
     5    20    11    1
     6    11    12   ar
     7    12    13   ar
     8    13    14   ar
     9    14    15   ar
    10    15     1    1
    11     1     2   ar
    12     2     3   ar
    13     3     4   ar
    14     4     5   ar
    15     5     6   ar
    16     6     7   ar
    17     7     8   ar
    18     8    25    1
    19    25    26    1
    20    26    27    1
    21    27    28    1
    22    28    29    1
    23    29    30    1
    24    30    31    1
    25     8     9   ar
    26     9    10   ar
    27    15    16   ar
    28    16    17   ar
    29    17    18   ar
    30    18    19   ar
    31    19    11   ar
    32    18    14   ar
    33    10     1   ar
    34     9     4   ar
    35    31    26    1
    36    29    32    1
@<TRIPOS>MOLECULE
*****
 32 36 0 0 0
SMALL
GASTEIGER

@<TRIPOS>ATOM
      1 C          63.8787   89.8768   13.4124 C.ar    1  UNL1        0.0990
      2 C          63.3654   89.9932   14.8170 C.ar    1  UNL1        0.0207
      3 C          64.0674   90.8815   15.8008 C.ar    1  UNL1        0.0032
      4 C          65.2827   91.6534   15.3801 C.ar    1  UNL1        0.0207
      5 C          65.9847   92.5418   16.3640 C.ar    1  UNL1        0.0017
      6 C          67.2001   93.3138   15.9433 C.ar    1  UNL1        0.0032
      7 C          67.7134   93.1974   14.5386 C.ar    1  UNL1        0.0385
      8 C          67.0114   92.3091   13.5548 C.ar    1  UNL1        0.1558
      9 C          65.7961   91.5371   13.9755 C.ar    1  UNL1        0.1151
     10 N          65.0940   90.6488   12.9917 N.ar    1  UNL1       -0.2408
     11 C          62.7143   84.5530   12.0200 C.ar    1  UNL1        0.1432
     12 C          63.5249   85.0248   13.1906 C.ar    1  UNL1        0.0560
     13 C          63.7369   86.4929   13.4132 C.ar    1  UNL1        0.0846
     14 N          63.1384   87.4894   12.4651 N.ar    1  UNL1       -0.2872
     15 C          63.1767   88.9884   12.4284 C.ar    1  UNL1        0.1021
     16 C          62.3897   89.4432   11.2352 C.ar    1  UNL1        0.1195
     17 N          61.8651   88.2252   10.5343 N.ar    1  UNL1       -0.2247
     18 C          62.3278   87.0176   11.2945 C.ar    1  UNL1        0.1509
     19 C          62.1157   85.5495   11.0719 C.ar    1  UNL1        0.0743
     20 O          62.5022   83.0849   11.7975 O.3     1  UNL1       -0.4726
     21 C          63.6168   82.1171   12.0646 C.3     1  UNL1        0.2373
     22 C          63.5944   81.2707   13.3028 C.3     1  UNL1        0.1894
     23 C          61.1492   81.0367   14.1488 C.3     1  UNL1        0.1743
     24 O          62.5561   81.5126   14.3580 O.3     1  UNL1       -0.3471
     25 O          67.5247   92.1927   12.1502 O.3     1  UNL1       -0.4776
     26 C          67.1193   93.2022   11.1175 C.3     1  UNL1        0.1687
     27 C          66.0775   94.2311   11.4429 C.3     1  UNL1        0.0606
     28 C          65.6721   95.2406   10.4101 C.3     1  UNL1        0.0723
     29 N          66.3085   95.2212    9.0520 N.3     1  UNL1       -0.2973
     30 C          67.3504   94.1923    8.7265 C.3     1  UNL1        0.0723
     31 C          67.7558   93.1828    9.7593 C.3     1  UNL1        0.0606
     32 H          66.7439   96.1338    8.9178 H       1  UNL1        0.1233
@<TRIPOS>BOND
     1    23    24    1
     2    24    22    1
     3    22    21    1
     4    21    20    1
     5    20    11    1
     6    11    12   ar
     7    12    13   ar
     8    13    14   ar
     9    14    15   ar
    10    15     1    1
    11     1     2   ar
    12     2     3   ar
    13     3     4   ar
    14     4     5   ar
    15     5     6   ar
    16     6     7   ar
    17     7     8   ar
    18     8    25    1
    19    25    26    1
    20    26    27    1
    21    27    28    1
    22    28    29    1
    23    29    30    1
    24    30    31    1
    25     8     9   ar
    26     9    10   ar
    27    15    16   ar
    28    16    17   ar
    29    17    18   ar
    30    18    19   ar
    31    19    11   ar
    32    18    14   ar
    33    10     1   ar
    34     9     4   ar
    35    31    26    1
    36    29    32    1
@<TRIPOS>MOLECULE
*****
 32 36 0 0 0
SMALL
GASTEIGER

@<TRIPOS>ATOM
      1 C          63.5564   89.0782   12.7024 C.ar    1  UNL1        0.0990
      2 C          63.8430   88.7036   14.1262 C.ar    1  UNL1        0.0207
      3 C          64.6459   89.6242   14.9968 C.ar    1  UNL1        0.0032
      4 C          65.1621   90.9193   14.4435 C.ar    1  UNL1        0.0207
      5 C          65.9650   91.8399   15.3141 C.ar    1  UNL1        0.0017
      6 C          66.4811   93.1351   14.7608 C.ar    1  UNL1        0.0032
      7 C          66.1944   93.5096   13.3369 C.ar    1  UNL1        0.0385
      8 C          65.3915   92.5890   12.4663 C.ar    1  UNL1        0.1558
      9 C          64.8754   91.2939   13.0196 C.ar    1  UNL1        0.1151
     10 N          64.0725   90.3733   12.1491 N.ar    1  UNL1       -0.2408
     11 C          59.9467   88.7829    8.3989 C.ar    1  UNL1        0.1432
     12 C          60.5460   90.0231    8.9928 C.ar    1  UNL1        0.0560
     13 C          61.4984   89.9173   10.1468 C.ar    1  UNL1        0.0846
     14 N          61.8514   88.5714   10.7069 N.ar    1  UNL1       -0.2872
     15 C          62.7535   88.1576   11.8317 C.ar    1  UNL1        0.1021
     16 C          62.7117   86.6616   11.9330 C.ar    1  UNL1        0.1195
     17 N          61.7838   86.1508   10.8708 N.ar    1  UNL1       -0.2247
     18 C          61.2521   87.3312   10.1130 C.ar    1  UNL1        0.1509
     19 C          60.2998   87.4369    8.9591 C.ar    1  UNL1        0.0743
     20 O          58.9943   88.8886    7.2449 O.3     1  UNL1       -0.4726
     21 C          59.3032   89.8061    6.0991 C.3     1  UNL1        0.2373
     22 C          58.2375   90.7097    5.5535 C.3     1  UNL1        0.1894
     23 C          59.6038   92.3389    4.0607 C.3     1  UNL1        0.1743
     24 O          58.5821   92.1081    5.1342 O.3     1  UNL1       -0.3471
     25 O          65.1049   92.9636   11.0424 O.3     1  UNL1       -0.4776
     26 C          65.9854   93.9504   10.3346 C.3     1  UNL1        0.1687
     27 C          65.6305   95.4078   10.3356 C.3     1  UNL1        0.0606
     28 C          66.5110   96.3946    9.6278 C.3     1  UNL1        0.0723
     29 N          67.7464   95.9240    8.9191 N.3     1  UNL1       -0.2973
     30 C          68.1013   94.4665    8.9181 C.3     1  UNL1        0.0723
     31 C          67.2208   93.4797    9.6259 C.3     1  UNL1        0.0606
     32 H          68.5333   96.4184    9.3393 H       1  UNL1        0.1233
@<TRIPOS>BOND
     1    23    24    1
     2    24    22    1
     3    22    21    1
     4    21    20    1
     5    20    11    1
     6    11    12   ar
     7    12    13   ar
     8    13    14   ar
     9    14    15   ar
    10    15     1    1
    11     1     2   ar
    12     2     3   ar
    13     3     4   ar
    14     4     5   ar
    15     5     6   ar
    16     6     7   ar
    17     7     8   ar
    18     8    25    1
    19    25    26    1
    20    26    27    1
    21    27    28    1
    22    28    29    1
    23    29    30    1
    24    30    31    1
    25     8     9   ar
    26     9    10   ar
    27    15    16   ar
    28    16    17   ar
    29    17    18   ar
    30    18    19   ar
    31    19    11   ar
    32    18    14   ar
    33    10     1   ar
    34     9     4   ar
    35    31    26    1
    36    29    32    1
@<TRIPOS>MOLECULE
*****
 32 36 0 0 0
SMALL
GASTEIGER

@<TRIPOS>ATOM
      1 C          64.0276   90.3263   13.5971 C.ar    1  UNL1        0.0990
      2 C          63.5725   90.5159   15.0137 C.ar    1  UNL1        0.0207
      3 C          64.3956   91.3358   15.9625 C.ar    1  UNL1        0.0032
      4 C          65.6737   91.9662   15.4946 C.ar    1  UNL1        0.0207
      5 C          66.4968   92.7862   16.4435 C.ar    1  UNL1        0.0017
      6 C          67.7750   93.4165   15.9756 C.ar    1  UNL1        0.0032
      7 C          68.2301   93.2270   14.5589 C.ar    1  UNL1        0.0385
      8 C          67.4070   92.4070   13.6101 C.ar    1  UNL1        0.1558
      9 C          66.1288   91.7767   14.0780 C.ar    1  UNL1        0.1151
     10 N          65.3058   90.9567   13.1292 N.ar    1  UNL1       -0.2408
     11 C          62.5332   85.1117   12.1100 C.ar    1  UNL1        0.1432
     12 C          63.4650   85.5039   13.2181 C.ar    1  UNL1        0.0560
     13 C          63.7539   86.9527   13.4776 C.ar    1  UNL1        0.0846
     14 N          63.1110   88.0094   12.6291 N.ar    1  UNL1       -0.2872
     15 C          63.2045   89.5064   12.6482 C.ar    1  UNL1        0.1021
     16 C          62.3305   90.0394   11.5519 C.ar    1  UNL1        0.1195
     17 N          61.6968   88.8719   10.8552 N.ar    1  UNL1       -0.2247
     18 C          62.1791   87.6172   11.5210 C.ar    1  UNL1        0.1509
     19 C          61.8903   86.1685   11.2614 C.ar    1  UNL1        0.0743
     20 O          62.2444   83.6629   11.8504 O.3     1  UNL1       -0.4726
     21 C          63.3741   82.6851   11.7166 C.3     1  UNL1        0.2373
     22 C          64.4725   82.9389   10.7272 C.3     1  UNL1        0.1894
     23 C          63.5701   84.4354    8.8047 C.3     1  UNL1        0.1743
     24 O          64.1449   83.1327    9.2763 O.3     1  UNL1       -0.3471
     25 O          67.8621   92.2175   12.1934 O.3     1  UNL1       -0.4776
     26 C          67.3616   93.1332   11.1160 C.3     1  UNL1        0.1687
     27 C          66.2628   94.1103   11.4127 C.3     1  UNL1        0.0606
     28 C          65.7623   95.0260   10.3352 C.3     1  UNL1        0.0723
     29 N          66.3605   94.9647    8.9611 N.3     1  UNL1       -0.2973
     30 C          67.4593   93.9876    8.6643 C.3     1  UNL1        0.0723
     31 C          67.9599   93.0719    9.7418 C.3     1  UNL1        0.0606
     32 H          66.7300   95.8937    8.7591 H       1  UNL1        0.1233
@<TRIPOS>BOND
     1    23    24    1
     2    24    22    1
     3    22    21    1
     4    21    20    1
     5    20    11    1
     6    11    12   ar
     7    12    13   ar
     8    13    14   ar
     9    14    15   ar
    10    15     1    1
    11     1     2   ar
    12     2     3   ar
    13     3     4   ar
    14     4     5   ar
    15     5     6   ar
    16     6     7   ar
    17     7     8   ar
    18     8    25    1
    19    25    26    1
    20    26    27    1
    21    27    28    1
    22    28    29    1
    23    29    30    1
    24    30    31    1
    25     8     9   ar
    26     9    10   ar
    27    15    16   ar
    28    16    17   ar
    29    17    18   ar
    30    18    19   ar
    31    19    11   ar
    32    18    14   ar
    33    10     1   ar
    34     9     4   ar
    35    31    26    1
    36    29    32    1
@<TRIPOS>MOLECULE
*****
 32 36 0 0 0
SMALL
GASTEIGER

@<TRIPOS>ATOM
      1 C          63.9868   89.1622   14.5385 C.ar    1  UNL1        0.0990
      2 C          65.2613   89.9215   14.7599 C.ar    1  UNL1        0.0207
      3 C          65.6836   90.9788   13.7833 C.ar    1  UNL1        0.0032
      4 C          64.8314   91.2767   12.5853 C.ar    1  UNL1        0.0207
      5 C          65.2538   92.3341   11.6087 C.ar    1  UNL1        0.0017
      6 C          64.4016   92.6320   10.4108 C.ar    1  UNL1        0.0032
      7 C          63.1271   91.8725   10.1894 C.ar    1  UNL1        0.0385
      8 C          62.7048   90.8152   11.1660 C.ar    1  UNL1        0.1558
      9 C          63.5570   90.5173   12.3640 C.ar    1  UNL1        0.1151
     10 N          63.1347   89.4601   13.3406 N.ar    1  UNL1       -0.2408
     11 C          63.0338   83.6657   15.2580 C.ar    1  UNL1        0.1432
     12 C          63.4851   84.3481   14.0008 C.ar    1  UNL1        0.0560
     13 C          63.6914   85.8338   13.9864 C.ar    1  UNL1        0.0846
     14 N          63.4463   86.6371   15.2292 N.ar    1  UNL1       -0.2872
     15 C          63.5645   88.1048   15.5151 C.ar    1  UNL1        0.1021
     16 C          63.1862   88.3296   16.9491 C.ar    1  UNL1        0.1195
     17 N          62.8342   87.0008   17.5494 N.ar    1  UNL1       -0.2247
     18 C          62.9950   85.9547   16.4864 C.ar    1  UNL1        0.1509
     19 C          62.7887   84.4691   16.5008 C.ar    1  UNL1        0.0743
     20 O          62.8275   82.1801   15.2725 O.3     1  UNL1       -0.4726
     21 C          61.9169   81.5395   14.2672 C.3     1  UNL1        0.2373
     22 C          62.3549   80.3034   13.5390 C.3     1  UNL1        0.1894
     23 C          63.1117   81.6972   11.4813 C.3     1  UNL1        0.1743
     24 O          62.7285   80.3803   12.0883 O.3     1  UNL1       -0.3471
     25 O          61.4303   90.0559   10.9447 O.3     1  UNL1       -0.4776
     26 C          61.4403   88.7940   10.1338 C.3     1  UNL1        0.1687
     27 C          62.3973   87.6906   10.4753 C.3     1  UNL1        0.0606
     28 C          62.4073   86.4287    9.6644 C.3     1  UNL1        0.0723
     29 N          61.4603   86.2703    8.5120 N.3     1  UNL1       -0.2973
     30 C          60.5033   87.3737    8.1704 C.3     1  UNL1        0.0723
     31 C          60.4933   88.6356    8.9813 C.3     1  UNL1        0.0606
     32 H          60.8976   85.4417    8.7050 H       1  UNL1        0.1233
@<TRIPOS>BOND
     1    23    24    1
     2    24    22    1
     3    22    21    1
     4    21    20    1
     5    20    11    1
     6    11    12   ar
     7    12    13   ar
     8    13    14   ar
     9    14    15   ar
    10    15     1    1
    11     1     2   ar
    12     2     3   ar
    13     3     4   ar
    14     4     5   ar
    15     5     6   ar
    16     6     7   ar
    17     7     8   ar
    18     8    25    1
    19    25    26    1
    20    26    27    1
    21    27    28    1
    22    28    29    1
    23    29    30    1
    24    30    31    1
    25     8     9   ar
    26     9    10   ar
    27    15    16   ar
    28    16    17   ar
    29    17    18   ar
    30    18    19   ar
    31    19    11   ar
    32    18    14   ar
    33    10     1   ar
    34     9     4   ar
    35    31    26    1
    36    29    32    1
@<TRIPOS>MOLECULE
*****
 32 36 0 0 0
SMALL
GASTEIGER

@<TRIPOS>ATOM
      1 C          64.1692   89.7017   14.7802 C.ar    1  UNL1        0.0990
      2 C          64.9468   90.8017   15.4399 C.ar    1  UNL1        0.0207
      3 C          65.4311   91.9676   14.6300 C.ar    1  UNL1        0.0032
      4 C          65.1378   92.0335   13.1605 C.ar    1  UNL1        0.0207
      5 C          65.6222   93.1995   12.3506 C.ar    1  UNL1        0.0017
      6 C          65.3290   93.2654   10.8810 C.ar    1  UNL1        0.0032
      7 C          64.5513   92.1653   10.2213 C.ar    1  UNL1        0.0385
      8 C          64.0670   90.9994   11.0312 C.ar    1  UNL1        0.1558
      9 C          64.3602   90.9335   12.5008 C.ar    1  UNL1        0.1151
     10 N          63.8759   89.7676   13.3107 N.ar    1  UNL1       -0.2408
     11 C          63.6591   84.1029   14.9550 C.ar    1  UNL1        0.1432
     12 C          64.2606   84.9219   13.8516 C.ar    1  UNL1        0.0560
     13 C          64.3155   86.4161   13.9712 C.ar    1  UNL1        0.0846
     14 N          63.7689   87.0913   15.1940 N.ar    1  UNL1       -0.2872
     15 C          63.6848   88.5356   15.5901 C.ar    1  UNL1        0.1021
     16 C          63.0313   88.6092   16.9383 C.ar    1  UNL1        0.1195
     17 N          62.7115   87.2104   17.3754 N.ar    1  UNL1       -0.2247
     18 C          63.1674   86.2723   16.2973 C.ar    1  UNL1        0.1509
     19 C          63.1124   84.7781   16.1778 C.ar    1  UNL1        0.0743
     20 O          63.6041   82.6087   14.8355 O.3     1  UNL1       -0.4726
     21 C          62.4404   81.9531   14.1526 C.3     1  UNL1        0.2373
     22 C          62.4347   81.8015   12.6603 C.3     1  UNL1        0.1894
     23 C          64.0430   82.7846   10.8724 C.3     1  UNL1        0.1743
     24 O          63.7307   81.7447   11.9073 O.3     1  UNL1       -0.3471
     25 O          63.2894   89.8994   10.3715 O.3     1  UNL1       -0.4776
     26 C          61.9490   89.4994   10.9131 C.3     1  UNL1        0.1687
     27 C          61.5796   88.0485   11.0046 C.3     1  UNL1        0.0606
     28 C          60.2391   87.6486   11.5462 C.3     1  UNL1        0.0723
     29 N          59.2681   88.6995   11.9962 N.3     1  UNL1       -0.2973
     30 C          59.6375   90.1505   11.9047 C.3     1  UNL1        0.0723
     31 C          60.9779   90.5504   11.3631 C.3     1  UNL1        0.0606
     32 H          59.0621   88.5094   12.9769 H       1  UNL1        0.1233
@<TRIPOS>BOND
     1    23    24    1
     2    24    22    1
     3    22    21    1
     4    21    20    1
     5    20    11    1
     6    11    12   ar
     7    12    13   ar
     8    13    14   ar
     9    14    15   ar
    10    15     1    1
    11     1     2   ar
    12     2     3   ar
    13     3     4   ar
    14     4     5   ar
    15     5     6   ar
    16     6     7   ar
    17     7     8   ar
    18     8    25    1
    19    25    26    1
    20    26    27    1
    21    27    28    1
    22    28    29    1
    23    29    30    1
    24    30    31    1
    25     8     9   ar
    26     9    10   ar
    27    15    16   ar
    28    16    17   ar
    29    17    18   ar
    30    18    19   ar
    31    19    11   ar
    32    18    14   ar
    33    10     1   ar
    34     9     4   ar
    35    31    26    1
    36    29    32    1
@<TRIPOS>MOLECULE
*****
 32 36 0 0 0
SMALL
GASTEIGER

@<TRIPOS>ATOM
      1 C          63.7337   88.0045   13.8679 C.ar    1  UNL1        0.0990
      2 C          64.6554   89.1586   14.1297 C.ar    1  UNL1        0.0207
      3 C          64.6551   90.3425   13.2087 C.ar    1  UNL1        0.0032
      4 C          63.7331   90.3723   12.0258 C.ar    1  UNL1        0.0207
      5 C          63.7328   91.5562   11.1048 C.ar    1  UNL1        0.0017
      6 C          62.8109   91.5860    9.9219 C.ar    1  UNL1        0.0032
      7 C          61.8892   90.4318    9.6601 C.ar    1  UNL1        0.0385
      8 C          61.8895   89.2479   10.5812 C.ar    1  UNL1        0.1558
      9 C          62.8115   89.2182   11.7640 C.ar    1  UNL1        0.1151
     10 N          62.8118   88.0343   12.6851 N.ar    1  UNL1       -0.2408
     11 C          63.7824   82.3874   14.1571 C.ar    1  UNL1        0.1432
     12 C          63.7890   83.2289   12.9154 C.ar    1  UNL1        0.0560
     13 C          63.7739   84.7249   13.0231 C.ar    1  UNL1        0.0846
     14 N          63.7522   85.3795   14.3726 N.ar    1  UNL1       -0.2872
     15 C          63.7340   86.8205   14.7890 C.ar    1  UNL1        0.1021
     16 C          63.7162   86.8696   16.2880 C.ar    1  UNL1        0.1195
     17 N          63.7233   85.4590   16.7982 N.ar    1  UNL1       -0.2247
     18 C          63.7456   84.5381   15.6143 C.ar    1  UNL1        0.1509
     19 C          63.7607   83.0421   15.5066 C.ar    1  UNL1        0.0743
     20 O          63.7975   80.8915   14.0494 O.3     1  UNL1       -0.4726
     21 C          62.5460   80.1537   13.6757 C.3     1  UNL1        0.2373
     22 C          61.2459   80.8928   13.5599 C.3     1  UNL1        0.1894
     23 C          59.0014   79.8436   14.3416 C.3     1  UNL1        0.1743
     24 O          60.1888   80.7199   14.6099 O.3     1  UNL1       -0.3471
     25 O          60.9679   88.0938   10.3194 O.3     1  UNL1       -0.4776
     26 C          61.3236   87.0703    9.2821 C.3     1  UNL1        0.1687
     27 C          62.6675   86.4049    9.3150 C.3     1  UNL1        0.0606
     28 C          63.0232   85.3813    8.2778 C.3     1  UNL1        0.0723
     29 N          62.0350   85.0232    7.2077 N.3     1  UNL1       -0.2973
     30 C          60.6910   85.6887    7.1747 C.3     1  UNL1        0.0723
     31 C          60.3353   86.7122    8.2120 C.3     1  UNL1        0.0606
     32 H          61.8653   84.0206    7.2872 H       1  UNL1        0.1233
@<TRIPOS>BOND
     1    23    24    1
     2    24    22    1
     3    22    21    1
     4    21    20    1
     5    20    11    1
     6    11    12   ar
     7    12    13   ar
     8    13    14   ar
     9    14    15   ar
    10    15     1    1
    11     1     2   ar
    12     2     3   ar
    13     3     4   ar
    14     4     5   ar
    15     5     6   ar
    16     6     7   ar
    17     7     8   ar
    18     8    25    1
    19    25    26    1
    20    26    27    1
    21    27    28    1
    22    28    29    1
    23    29    30    1
    24    30    31    1
    25     8     9   ar
    26     9    10   ar
    27    15    16   ar
    28    16    17   ar
    29    17    18   ar
    30    18    19   ar
    31    19    11   ar
    32    18    14   ar
    33    10     1   ar
    34     9     4   ar
    35    31    26    1
    36    29    32    1
@<TRIPOS>MOLECULE
*****
 32 36 0 0 0
SMALL
GASTEIGER

@<TRIPOS>ATOM
      1 C          63.9953   88.8206   14.1464 C.ar    1  UNL1        0.0990
      2 C          63.4441   89.0980   15.5135 C.ar    1  UNL1        0.0207
      3 C          63.8830   90.3194   16.2654 C.ar    1  UNL1        0.0032
      4 C          64.8732   91.2634   15.6502 C.ar    1  UNL1        0.0207
      5 C          65.3121   92.4849   16.4022 C.ar    1  UNL1        0.0017
      6 C          66.3022   93.4289   15.7870 C.ar    1  UNL1        0.0032
      7 C          66.8534   93.1514   14.4198 C.ar    1  UNL1        0.0385
      8 C          66.4145   91.9300   13.6679 C.ar    1  UNL1        0.1558
      9 C          65.4244   90.9860   14.2831 C.ar    1  UNL1        0.1151
     10 N          64.9855   89.7646   13.5311 N.ar    1  UNL1       -0.2408
     11 C          61.6963   86.9198    9.3779 C.ar    1  UNL1        0.1432
     12 C          61.9770   88.3482    9.7396 C.ar    1  UNL1        0.0560
     13 C          62.5992   88.6781   11.0640 C.ar    1  UNL1        0.0846
     14 N          62.9406   87.5797   12.0267 N.ar    1  UNL1       -0.2872
     15 C          63.5564   87.5991   13.3943 C.ar    1  UNL1        0.1021
     16 C          63.6563   86.1827   13.8779 C.ar    1  UNL1        0.1195
     17 N          63.1022   85.2879   12.8092 N.ar    1  UNL1       -0.2247
     18 C          62.6599   86.1513   11.6650 C.ar    1  UNL1        0.1509
     19 C          62.0377   85.8213   10.3407 C.ar    1  UNL1        0.0743
     20 O          61.0741   86.5898    8.0536 O.3     1  UNL1       -0.4726
     21 C          59.5810   86.5661    7.9114 C.3     1  UNL1        0.2373
     22 C          58.8279   87.8451    7.6942 C.3     1  UNL1        0.1894
     23 C          59.3016   89.8045    6.0553 C.3     1  UNL1        0.1743
     24 O          59.5697   89.1037    7.3541 O.3     1  UNL1       -0.3471
     25 O          66.9657   91.6526   12.3007 O.3     1  UNL1       -0.4776
     26 C          66.8487   92.6870   11.2208 C.3     1  UNL1        0.1687
     27 C          65.7862   93.7424   11.3051 C.3     1  UNL1        0.0606
     28 C          65.6691   94.7768   10.2251 C.3     1  UNL1        0.0723
     29 N          66.6146   94.7558    9.0608 N.3     1  UNL1       -0.2973
     30 C          67.6772   93.7004    8.9765 C.3     1  UNL1        0.0723
     31 C          67.7942   92.6660   10.0564 C.3     1  UNL1        0.0606
     32 H          67.0930   95.6566    9.0538 H       1  UNL1        0.1233
@<TRIPOS>BOND
     1    23    24    1
     2    24    22    1
     3    22    21    1
     4    21    20    1
     5    20    11    1
     6    11    12   ar
     7    12    13   ar
     8    13    14   ar
     9    14    15   ar
    10    15     1    1
    11     1     2   ar
    12     2     3   ar
    13     3     4   ar
    14     4     5   ar
    15     5     6   ar
    16     6     7   ar
    17     7     8   ar
    18     8    25    1
    19    25    26    1
    20    26    27    1
    21    27    28    1
    22    28    29    1
    23    29    30    1
    24    30    31    1
    25     8     9   ar
    26     9    10   ar
    27    15    16   ar
    28    16    17   ar
    29    17    18   ar
    30    18    19   ar
    31    19    11   ar
    32    18    14   ar
    33    10     1   ar
    34     9     4   ar
    35    31    26    1
    36    29    32    1
