@<TRIPOS>MOLECULE
*****
 34 36 0 0 0
SMALL
GASTEIGER

@<TRIPOS>ATOM
      1 N          62.2232   89.9139   11.8992 N.pl3   1  UNL1       -0.2120
      2 H          61.3437   90.3158   11.7144 H       1  UNL1        0.1738
      3 C          61.6482   87.6228   10.8173 C.ar    1  UNL1        0.1532
      4 C          61.8192   86.1337   10.7602 C.ar    1  UNL1        0.0382
      5 C          62.7363   85.4465   11.7280 C.ar    1  UNL1        0.0032
      6 C          63.4824   86.2484   12.7528 C.ar    1  UNL1        0.0015
      7 C          63.3114   87.7374   12.8099 C.ar    1  UNL1        0.0189
      8 C          62.3943   88.4247   11.8421 C.ar    1  UNL1        0.0986
      9 C          62.9074   83.9573   11.6709 C.ar    1  UNL1        0.0028
     10 C          63.6273   83.3289   10.5147 C.ar    1  UNL1        0.0207
     11 C          63.7984   81.8398   10.4576 C.ar    1  UNL1        0.0984
     12 N          63.2494   80.9791   11.5567 N.ar    1  UNL1       -0.2481
     13 C          62.5295   81.6075   12.7128 C.ar    1  UNL1        0.0594
     14 C          61.9805   80.7468   13.8119 C.3     1  UNL1        0.0521
     15 C          62.3584   83.0967   12.7699 C.ar    1  UNL1        0.0147
     16 C          59.8415   87.4993    8.9543 C.3     1  UNL1        0.2525
     17 O          60.7310   88.3101    9.8495 O.3     1  UNL1       -0.4701
     18 S          63.3923   90.7906   12.2379 S.O2    1  UNL1        0.0737
     19 O          63.6572   91.0017   10.7766 O.2     1  UNL1       -0.1499
     20 O          63.1273   90.5794   13.6991 O.2     1  UNL1       -0.1499
     21 C          64.5613   91.6673   12.5765 C.ar    1  UNL1        0.1251
     22 C          65.0179   92.7165   11.6065 C.ar    1  UNL1        0.0240
     23 C          66.1869   93.5932   11.9452 C.ar    1  UNL1        0.0727
     24 C          66.8994   93.4207   13.2539 C.ar    1  UNL1        0.0078
     25 C          66.4429   92.3716   14.2238 C.ar    1  UNL1        0.0727
     26 C          65.2739   91.4949   13.8852 C.ar    1  UNL1        0.0240
     27 C          66.6434   94.6423   10.9752 C.3     1  UNL1        0.4186
     28 F          67.1000   95.6914   10.0052 F       1  UNL1       -0.1659
     29 F          66.1518   95.7137   11.9027 F       1  UNL1       -0.1659
     30 F          67.1351   93.5709   10.0477 F       1  UNL1       -0.1659
     31 C          67.1554   92.1992   15.5325 C.3     1  UNL1        0.4186
     32 F          67.8679   92.0268   16.8412 F       1  UNL1       -0.1659
     33 F          65.9660   92.7600   16.2540 F       1  UNL1       -0.1659
     34 F          68.3449   91.6383   14.8111 F       1  UNL1       -0.1659
@<TRIPOS>BOND
     1    16    17    1
     2    17     3    1
     3     3     4   ar
     4     4     5   ar
     5     5     9    1
     6     9    10   ar
     7    10    11   ar
     8    11    12   ar
     9    12    13   ar
    10    13    14    1
    11    13    15   ar
    12     5     6   ar
    13     6     7   ar
    14     7     8   ar
    15     8     1    1
    16     1    18    1
    17    18    19    2
    18    18    20    2
    19    18    21    1
    20    21    22   ar
    21    22    23   ar
    22    23    27    1
    23    27    28    1
    24    27    29    1
    25    27    30    1
    26    23    24   ar
    27    24    25   ar
    28    25    31    1
    29    31    32    1
    30    31    33    1
    31    31    34    1
    32    25    26   ar
    33     8     3   ar
    34    26    21   ar
    35    15     9   ar
    36     1     2    1
@<TRIPOS>MOLECULE
*****
 34 36 0 0 0
SMALL
GASTEIGER

@<TRIPOS>ATOM
      1 N          62.2149   89.9419   11.5807 N.pl3   1  UNL1       -0.2120
      2 H          61.3363   90.3399   11.3839 H       1  UNL1        0.1738
      3 C          61.7265   87.6211   10.5199 C.ar    1  UNL1        0.1532
      4 C          61.8903   86.1301   10.5249 C.ar    1  UNL1        0.0382
      5 C          62.7063   85.4688   11.5959 C.ar    1  UNL1        0.0032
      6 C          63.3585   86.2986   12.6617 C.ar    1  UNL1        0.0015
      7 C          63.1947   87.7896   12.6567 C.ar    1  UNL1        0.0189
      8 C          62.3787   88.4508   11.5857 C.ar    1  UNL1        0.0986
      9 C          62.8701   83.9778   11.6009 C.ar    1  UNL1        0.0028
     10 C          63.5615   83.2954   10.4579 C.ar    1  UNL1        0.0207
     11 C          63.7253   81.8044   10.4629 C.ar    1  UNL1        0.0984
     12 N          63.1976   80.9957   11.6109 N.ar    1  UNL1       -0.2481
     13 C          62.5063   81.6781   12.7538 C.ar    1  UNL1        0.0594
     14 C          61.9787   80.8695   13.9017 C.3     1  UNL1        0.0521
     15 C          62.3425   83.1692   12.7488 C.ar    1  UNL1        0.0147
     16 C          59.7983   87.5295    8.7810 C.3     1  UNL1        0.2525
     17 O          60.9105   88.2823    9.4489 O.3     1  UNL1       -0.4701
     18 S          63.3900   90.8264   11.8755 S.O2    1  UNL1        0.0737
     19 O          63.1243   90.6894   13.3455 O.2     1  UNL1       -0.1499
     20 O          63.6556   90.9635   10.4056 O.2     1  UNL1       -0.1499
     21 C          64.5650   91.7110   12.1704 C.ar    1  UNL1        0.1251
     22 C          65.2404   91.6398   13.5079 C.ar    1  UNL1        0.0240
     23 C          66.4154   92.5243   13.8027 C.ar    1  UNL1        0.0727
     24 C          66.9150   93.4801   12.7600 C.ar    1  UNL1        0.0078
     25 C          66.2396   93.5512   11.4226 C.ar    1  UNL1        0.0727
     26 C          65.0645   92.6667   11.1278 C.ar    1  UNL1        0.0240
     27 C          67.0909   92.4531   15.1401 C.3     1  UNL1        0.4186
     28 F          67.7663   92.3819   16.4775 F       1  UNL1       -0.1659
     29 F          67.1892   93.9496   15.1701 F       1  UNL1       -0.1659
     30 F          66.9926   90.9567   15.1101 F       1  UNL1       -0.1659
     31 C          66.7391   94.5070   10.3800 C.3     1  UNL1        0.4186
     32 F          67.2386   95.4627    9.3374 F       1  UNL1       -0.1659
     33 F          66.6176   95.6376   11.3582 F       1  UNL1       -0.1659
     34 F          66.8606   93.3764    9.4018 F       1  UNL1       -0.1659
@<TRIPOS>BOND
     1    16    17    1
     2    17     3    1
     3     3     4   ar
     4     4     5   ar
     5     5     9    1
     6     9    10   ar
     7    10    11   ar
     8    11    12   ar
     9    12    13   ar
    10    13    14    1
    11    13    15   ar
    12     5     6   ar
    13     6     7   ar
    14     7     8   ar
    15     8     1    1
    16     1    18    1
    17    18    19    2
    18    18    20    2
    19    18    21    1
    20    21    22   ar
    21    22    23   ar
    22    23    27    1
    23    27    28    1
    24    27    29    1
    25    27    30    1
    26    23    24   ar
    27    24    25   ar
    28    25    31    1
    29    31    32    1
    30    31    33    1
    31    31    34    1
    32    25    26   ar
    33     8     3   ar
    34    26    21   ar
    35    15     9   ar
    36     1     2    1
@<TRIPOS>MOLECULE
*****
 34 36 0 0 0
SMALL
GASTEIGER

@<TRIPOS>ATOM
      1 N          62.8627   89.2895   13.2394 N.pl3   1  UNL1       -0.2120
      2 H          62.3973   89.3812   14.1021 H       1  UNL1        0.1738
      3 C          64.6287   91.1769   13.5026 C.ar    1  UNL1        0.1532
      4 C          65.3815   92.3407   12.9291 C.ar    1  UNL1        0.0382
      5 C          65.1211   92.7810   11.5191 C.ar    1  UNL1        0.0032
      6 C          64.1079   92.0575   10.6824 C.ar    1  UNL1        0.0015
      7 C          63.3551   90.8937   11.2559 C.ar    1  UNL1        0.0189
      8 C          63.6155   90.4534   12.6660 C.ar    1  UNL1        0.0986
      9 C          65.8739   93.9448   10.9456 C.ar    1  UNL1        0.0028
     10 C          65.9466   95.2376   11.7030 C.ar    1  UNL1        0.0207
     11 C          66.6994   96.4014   11.1296 C.ar    1  UNL1        0.0984
     12 N          67.3795   96.2725    9.7988 N.ar    1  UNL1       -0.2481
     13 C          67.3067   94.9798    9.0414 C.ar    1  UNL1        0.0594
     14 C          67.9868   94.8509    7.7107 C.3     1  UNL1        0.0521
     15 C          66.5539   93.8159    9.6149 C.ar    1  UNL1        0.0147
     16 C          63.9869   91.1943   16.0201 C.3     1  UNL1        0.2525
     17 O          64.8891   90.7366   14.9127 O.3     1  UNL1       -0.4701
     18 S          62.8190   87.9861   12.4984 S.O2    1  UNL1        0.0737
     19 O          63.9284   87.4593   13.3596 O.2     1  UNL1       -0.1499
     20 O          61.7096   88.5129   11.6372 O.2     1  UNL1       -0.1499
     21 C          62.7753   86.6826   11.7574 C.ar    1  UNL1        0.1251
     22 C          62.3790   86.6552   10.3109 C.ar    1  UNL1        0.0240
     23 C          62.3353   85.3517    9.5699 C.ar    1  UNL1        0.0727
     24 C          62.6879   84.0757   10.2753 C.ar    1  UNL1        0.0078
     25 C          63.0842   84.1033   11.7217 C.ar    1  UNL1        0.0727
     26 C          63.1279   85.4067   12.4628 C.ar    1  UNL1        0.0240
     27 C          61.9390   85.3242    8.1235 C.3     1  UNL1        0.4186
     28 F          61.5427   85.2967    6.6771 F       1  UNL1       -0.1659
     29 F          63.1894   84.5636    7.7953 F       1  UNL1       -0.1659
     30 F          60.6885   86.0848    8.4516 F       1  UNL1       -0.1659
     31 C          63.4368   82.8273   12.4272 C.3     1  UNL1        0.4186
     32 F          63.7894   81.5514   13.1327 F       1  UNL1       -0.1659
     33 F          64.6434   83.4901   13.0228 F       1  UNL1       -0.1659
     34 F          62.2302   82.1645   11.8316 F       1  UNL1       -0.1659
@<TRIPOS>BOND
     1    16    17    1
     2    17     3    1
     3     3     4   ar
     4     4     5   ar
     5     5     9    1
     6     9    10   ar
     7    10    11   ar
     8    11    12   ar
     9    12    13   ar
    10    13    14    1
    11    13    15   ar
    12     5     6   ar
    13     6     7   ar
    14     7     8   ar
    15     8     1    1
    16     1    18    1
    17    18    19    2
    18    18    20    2
    19    18    21    1
    20    21    22   ar
    21    22    23   ar
    22    23    27    1
    23    27    28    1
    24    27    29    1
    25    27    30    1
    26    23    24   ar
    27    24    25   ar
    28    25    31    1
    29    31    32    1
    30    31    33    1
    31    31    34    1
    32    25    26   ar
    33     8     3   ar
    34    26    21   ar
    35    15     9   ar
    36     1     2    1
@<TRIPOS>MOLECULE
*****
 34 36 0 0 0
SMALL
GASTEIGER

@<TRIPOS>ATOM
      1 N          62.7955   89.2796   13.1834 N.pl3   1  UNL1       -0.2120
      2 H          62.3085   89.3763   14.0335 H       1  UNL1        0.1738
      3 C          64.5957   91.1322   13.4605 C.ar    1  UNL1        0.1532
      4 C          65.3625   92.2928   12.8992 C.ar    1  UNL1        0.0382
      5 C          65.0960   92.7612   11.4994 C.ar    1  UNL1        0.0032
      6 C          64.0626   92.0691   10.6609 C.ar    1  UNL1        0.0015
      7 C          63.2958   90.9086   11.2222 C.ar    1  UNL1        0.0189
      8 C          63.5624   90.4401   12.6220 C.ar    1  UNL1        0.0986
      9 C          65.8628   93.9218   10.9380 C.ar    1  UNL1        0.0028
     10 C          65.9269   95.2150   11.6952 C.ar    1  UNL1        0.0207
     11 C          66.6937   96.3756   11.1340 C.ar    1  UNL1        0.0984
     12 N          67.3965   96.2429    9.8154 N.ar    1  UNL1       -0.2481
     13 C          67.3325   94.9497    9.0582 C.ar    1  UNL1        0.0594
     14 C          68.0353   94.8169    7.7397 C.3     1  UNL1        0.0521
     15 C          66.5656   93.7891    9.6195 C.ar    1  UNL1        0.0147
     16 C          63.9972   91.1418   15.9887 C.3     1  UNL1        0.2525
     17 O          64.8623   90.6638   14.8604 O.3     1  UNL1       -0.4701
     18 S          62.7707   87.9716   12.4494 S.O2    1  UNL1        0.0737
     19 O          61.6485   88.4748   11.5907 O.2     1  UNL1       -0.1499
     20 O          63.8929   87.4684   13.3082 O.2     1  UNL1       -0.1499
     21 C          62.7459   86.6637   11.7155 C.ar    1  UNL1        0.1251
     22 C          63.0984   85.3943   12.4328 C.ar    1  UNL1        0.0240
     23 C          63.0735   84.0864   11.6989 C.ar    1  UNL1        0.0727
     24 C          62.6963   84.0478   10.2475 C.ar    1  UNL1        0.0078
     25 C          62.3438   85.3171    9.5303 C.ar    1  UNL1        0.0727
     26 C          62.3686   86.6251   10.2642 C.ar    1  UNL1        0.0240
     27 C          63.4260   82.8171   12.4161 C.3     1  UNL1        0.4186
     28 F          63.7784   81.5477   13.1334 F       1  UNL1       -0.1659
     29 F          64.5691   83.5157   13.0908 F       1  UNL1       -0.1659
     30 F          62.2829   82.1184   11.7415 F       1  UNL1       -0.1659
     31 C          61.9665   85.2786    8.0789 C.3     1  UNL1        0.4186
     32 F          61.5892   85.2401    6.6277 F       1  UNL1       -0.1659
     33 F          60.7016   86.0231    8.3880 F       1  UNL1       -0.1659
     34 F          63.2315   84.5341    7.7698 F       1  UNL1       -0.1659
@<TRIPOS>BOND
     1    16    17    1
     2    17     3    1
     3     3     4   ar
     4     4     5   ar
     5     5     9    1
     6     9    10   ar
     7    10    11   ar
     8    11    12   ar
     9    12    13   ar
    10    13    14    1
    11    13    15   ar
    12     5     6   ar
    13     6     7   ar
    14     7     8   ar
    15     8     1    1
    16     1    18    1
    17    18    19    2
    18    18    20    2
    19    18    21    1
    20    21    22   ar
    21    22    23   ar
    22    23    27    1
    23    27    28    1
    24    27    29    1
    25    27    30    1
    26    23    24   ar
    27    24    25   ar
    28    25    31    1
    29    31    32    1
    30    31    33    1
    31    31    34    1
    32    25    26   ar
    33     8     3   ar
    34    26    21   ar
    35    15     9   ar
    36     1     2    1
@<TRIPOS>MOLECULE
*****
 34 36 0 0 0
SMALL
GASTEIGER

@<TRIPOS>ATOM
      1 N          62.9935   85.6451   16.1963 N.pl3   1  UNL1       -0.2120
      2 H          62.7638   85.5189   17.1453 H       1  UNL1        0.1738
      3 C          63.3754   88.1841   16.5935 C.ar    1  UNL1        0.1532
      4 C          63.8829   89.5119   16.1147 C.ar    1  UNL1        0.0382
      5 C          64.5161   89.6286   14.7599 C.ar    1  UNL1        0.0032
      6 C          64.6417   88.4175   13.8839 C.ar    1  UNL1        0.0015
      7 C          64.1342   87.0897   14.3627 C.ar    1  UNL1        0.0189
      8 C          63.5010   86.9730   15.7175 C.ar    1  UNL1        0.0986
      9 C          65.0236   90.9565   14.2811 C.ar    1  UNL1        0.0028
     10 C          65.7119   91.8853   15.2369 C.ar    1  UNL1        0.0207
     11 C          66.2194   93.2131   14.7582 C.ar    1  UNL1        0.0984
     12 N          66.0387   93.6122   13.3236 N.ar    1  UNL1       -0.2481
     13 C          65.3504   92.6834   12.3677 C.ar    1  UNL1        0.0594
     14 C          65.1697   93.0824   10.9331 C.3     1  UNL1        0.0521
     15 C          64.8429   91.3555   12.8465 C.ar    1  UNL1        0.0147
     16 C          62.7100   86.7417   18.6494 C.3     1  UNL1        0.2525
     17 O          62.7422   88.0674   17.9483 O.3     1  UNL1       -0.4701
     18 S          62.8358   84.5094   15.2292 S.O2    1  UNL1        0.0737
     19 O          61.3824   84.8450   15.0720 O.2     1  UNL1       -0.1499
     20 O          64.2893   84.1738   15.3864 O.2     1  UNL1       -0.1499
     21 C          62.6782   83.3737   14.2620 C.ar    1  UNL1        0.1251
     22 C          63.4512   83.3706   12.9765 C.ar    1  UNL1        0.0240
     23 C          63.2936   82.2349   12.0093 C.ar    1  UNL1        0.0727
     24 C          62.3629   81.1023   12.3277 C.ar    1  UNL1        0.0078
     25 C          61.5900   81.1055   13.6132 C.ar    1  UNL1        0.0727
     26 C          61.7476   82.2412   14.5803 C.ar    1  UNL1        0.0240
     27 C          64.0665   82.2318   10.7238 C.3     1  UNL1        0.4186
     28 F          64.8394   82.2286    9.4383 F       1  UNL1       -0.1659
     29 F          64.9198   83.3548   11.2342 F       1  UNL1       -0.1659
     30 F          63.2131   81.1087   10.2135 F       1  UNL1       -0.1659
     31 C          60.6594   79.9729   13.9316 C.3     1  UNL1        0.4186
     32 F          59.7288   78.8404   14.2500 F       1  UNL1       -0.1659
     33 F          59.5760   80.9562   14.2623 F       1  UNL1       -0.1659
     34 F          61.7428   78.9897   13.6008 F       1  UNL1       -0.1659
@<TRIPOS>BOND
     1    16    17    1
     2    17     3    1
     3     3     4   ar
     4     4     5   ar
     5     5     9    1
     6     9    10   ar
     7    10    11   ar
     8    11    12   ar
     9    12    13   ar
    10    13    14    1
    11    13    15   ar
    12     5     6   ar
    13     6     7   ar
    14     7     8   ar
    15     8     1    1
    16     1    18    1
    17    18    19    2
    18    18    20    2
    19    18    21    1
    20    21    22   ar
    21    22    23   ar
    22    23    27    1
    23    27    28    1
    24    27    29    1
    25    27    30    1
    26    23    24   ar
    27    24    25   ar
    28    25    31    1
    29    31    32    1
    30    31    33    1
    31    31    34    1
    32    25    26   ar
    33     8     3   ar
    34    26    21   ar
    35    15     9   ar
    36     1     2    1
@<TRIPOS>MOLECULE
*****
 34 36 0 0 0
SMALL
GASTEIGER

@<TRIPOS>ATOM
      1 N          62.9882   85.6534   16.1906 N.pl3   1  UNL1       -0.2120
      2 H          62.7519   85.5282   17.1381 H       1  UNL1        0.1738
      3 C          63.3770   88.1905   16.5927 C.ar    1  UNL1        0.1532
      4 C          63.8869   89.5181   16.1160 C.ar    1  UNL1        0.0382
      5 C          64.5180   89.6363   14.7603 C.ar    1  UNL1        0.0032
      6 C          64.6391   88.4269   13.8814 C.ar    1  UNL1        0.0015
      7 C          64.1292   87.0992   14.3582 C.ar    1  UNL1        0.0189
      8 C          63.4981   86.9811   15.7138 C.ar    1  UNL1        0.0986
      9 C          65.0280   90.9640   14.2836 C.ar    1  UNL1        0.0028
     10 C          65.7155   91.8912   15.2415 C.ar    1  UNL1        0.0207
     11 C          66.2255   93.2189   14.7648 C.ar    1  UNL1        0.0984
     12 N          66.0479   93.6194   13.3302 N.ar    1  UNL1       -0.2481
     13 C          65.3603   92.6922   12.3723 C.ar    1  UNL1        0.0594
     14 C          65.1827   93.0926   10.9377 C.3     1  UNL1        0.0521
     15 C          64.8504   91.3645   12.8490 C.ar    1  UNL1        0.0147
     16 C          62.7117   86.7453   18.6466 C.3     1  UNL1        0.2525
     17 O          62.7459   88.0724   17.9484 O.3     1  UNL1       -0.4701
     18 S          62.8382   84.5164   15.2237 S.O2    1  UNL1        0.0737
     19 O          61.3814   84.8392   15.0700 O.2     1  UNL1       -0.1499
     20 O          64.2950   84.1936   15.3773 O.2     1  UNL1       -0.1499
     21 C          62.6883   83.3795   14.2567 C.ar    1  UNL1        0.1251
     22 C          61.7658   82.2404   14.5757 C.ar    1  UNL1        0.0240
     23 C          61.6159   81.1035   13.6088 C.ar    1  UNL1        0.0727
     24 C          62.3883   81.1057   12.3229 C.ar    1  UNL1        0.0078
     25 C          63.3107   82.2448   12.0040 C.ar    1  UNL1        0.0727
     26 C          63.4606   83.3817   12.9709 C.ar    1  UNL1        0.0240
     27 C          60.6936   79.9644   13.9277 C.3     1  UNL1        0.4186
     28 F          59.7712   78.8253   14.2466 F       1  UNL1       -0.1659
     29 F          59.6018   80.9398   14.2540 F       1  UNL1       -0.1659
     30 F          61.7853   78.9890   13.6013 F       1  UNL1       -0.1659
     31 C          64.0831   82.2470   10.7181 C.3     1  UNL1        0.4186
     32 F          64.8556   82.2492    9.4323 F       1  UNL1       -0.1659
     33 F          64.9494   83.3545   11.2405 F       1  UNL1       -0.1659
     34 F          63.2169   81.1394   10.1958 F       1  UNL1       -0.1659
@<TRIPOS>BOND
     1    16    17    1
     2    17     3    1
     3     3     4   ar
     4     4     5   ar
     5     5     9    1
     6     9    10   ar
     7    10    11   ar
     8    11    12   ar
     9    12    13   ar
    10    13    14    1
    11    13    15   ar
    12     5     6   ar
    13     6     7   ar
    14     7     8   ar
    15     8     1    1
    16     1    18    1
    17    18    19    2
    18    18    20    2
    19    18    21    1
    20    21    22   ar
    21    22    23   ar
    22    23    27    1
    23    27    28    1
    24    27    29    1
    25    27    30    1
    26    23    24   ar
    27    24    25   ar
    28    25    31    1
    29    31    32    1
    30    31    33    1
    31    31    34    1
    32    25    26   ar
    33     8     3   ar
    34    26    21   ar
    35    15     9   ar
    36     1     2    1
@<TRIPOS>MOLECULE
*****
 34 36 0 0 0
SMALL
GASTEIGER

@<TRIPOS>ATOM
      1 N          63.4913   87.8248   16.0297 N.pl3   1  UNL1       -0.2120
      2 H          63.3153   87.9562   16.9894 H       1  UNL1        0.1738
      3 C          62.5478   85.4069   16.1465 C.ar    1  UNL1        0.1532
      4 C          62.3675   84.0517   15.5295 C.ar    1  UNL1        0.0382
      5 C          62.9504   83.7589   14.1788 C.ar    1  UNL1        0.0032
      6 C          63.7136   84.8214   13.4450 C.ar    1  UNL1        0.0015
      7 C          63.8939   86.1767   14.0620 C.ar    1  UNL1        0.0189
      8 C          63.3110   86.4695   15.4127 C.ar    1  UNL1        0.0986
      9 C          62.7701   82.4036   13.5618 C.ar    1  UNL1        0.0028
     10 C          62.2380   81.2690   14.3863 C.ar    1  UNL1        0.0207
     11 C          62.0577   79.9137   13.7694 C.ar    1  UNL1        0.0984
     12 N          62.4094   79.6929   12.3280 N.ar    1  UNL1       -0.2481
     13 C          62.9415   80.8274   11.5036 C.ar    1  UNL1        0.0594
     14 C          63.2933   80.6066   10.0622 C.3     1  UNL1        0.0521
     15 C          63.1218   82.1828   12.1205 C.ar    1  UNL1        0.0147
     16 C          62.6969   86.5956   18.4518 C.3     1  UNL1        0.2525
     17 O          61.9649   85.6997   17.4972 O.3     1  UNL1       -0.4701
     18 S          63.9397   88.9800   15.1843 S.O2    1  UNL1        0.0737
     19 O          65.2391   88.2799   14.9169 O.2     1  UNL1       -0.1499
     20 O          62.6404   89.6801   15.4518 O.2     1  UNL1       -0.1499
     21 C          64.3881   90.1351   14.3390 C.ar    1  UNL1        0.1251
     22 C          65.4048   91.1023   14.8692 C.ar    1  UNL1        0.0240
     23 C          65.8532   92.2575   14.0239 C.ar    1  UNL1        0.0727
     24 C          65.2850   92.4454   12.6484 C.ar    1  UNL1        0.0078
     25 C          64.2684   91.4783   12.1183 C.ar    1  UNL1        0.0727
     26 C          63.8200   90.3231   12.9636 C.ar    1  UNL1        0.0240
     27 C          66.8698   93.2247   14.5540 C.3     1  UNL1        0.4186
     28 F          67.8864   94.1918   15.0841 F       1  UNL1       -0.1659
     29 F          67.3844   92.1711   15.4895 F       1  UNL1       -0.1659
     30 F          66.3553   94.2782   13.6186 F       1  UNL1       -0.1659
     31 C          63.7001   91.6662   10.7429 C.3     1  UNL1        0.4186
     32 F          63.1319   91.8541    9.3675 F       1  UNL1       -0.1659
     33 F          62.4644   90.9207   11.1516 F       1  UNL1       -0.1659
     34 F          64.9359   92.4117   10.3341 F       1  UNL1       -0.1659
@<TRIPOS>BOND
     1    16    17    1
     2    17     3    1
     3     3     4   ar
     4     4     5   ar
     5     5     9    1
     6     9    10   ar
     7    10    11   ar
     8    11    12   ar
     9    12    13   ar
    10    13    14    1
    11    13    15   ar
    12     5     6   ar
    13     6     7   ar
    14     7     8   ar
    15     8     1    1
    16     1    18    1
    17    18    19    2
    18    18    20    2
    19    18    21    1
    20    21    22   ar
    21    22    23   ar
    22    23    27    1
    23    27    28    1
    24    27    29    1
    25    27    30    1
    26    23    24   ar
    27    24    25   ar
    28    25    31    1
    29    31    32    1
    30    31    33    1
    31    31    34    1
    32    25    26   ar
    33     8     3   ar
    34    26    21   ar
    35    15     9   ar
    36     1     2    1
@<TRIPOS>MOLECULE
*****
 34 36 0 0 0
SMALL
GASTEIGER

@<TRIPOS>ATOM
      1 N          63.4867   87.8249   16.0296 N.pl3   1  UNL1       -0.2120
      2 H          63.3134   87.9596   16.9894 H       1  UNL1        0.1738
      3 C          62.5496   85.4052   16.1610 C.ar    1  UNL1        0.1532
      4 C          62.3670   84.0479   15.5492 C.ar    1  UNL1        0.0382
      5 C          62.9387   83.7529   14.1942 C.ar    1  UNL1        0.0032
      6 C          63.6932   84.8152   13.4510 C.ar    1  UNL1        0.0015
      7 C          63.8758   86.1725   14.0628 C.ar    1  UNL1        0.0189
      8 C          63.3040   86.4675   15.4178 C.ar    1  UNL1        0.0986
      9 C          62.7561   82.3955   13.5824 C.ar    1  UNL1        0.0028
     10 C          62.2389   81.2606   14.4159 C.ar    1  UNL1        0.0207
     11 C          62.0563   79.9033   13.8041 C.ar    1  UNL1        0.0984
     12 N          62.3907   79.6808   12.3589 N.ar    1  UNL1       -0.2481
     13 C          62.9079   80.8157   11.5254 C.ar    1  UNL1        0.0594
     14 C          63.2424   80.5932   10.0802 C.3     1  UNL1        0.0521
     15 C          63.0905   82.1731   12.1372 C.ar    1  UNL1        0.0147
     16 C          62.6955   86.6329   18.4461 C.3     1  UNL1        0.2525
     17 O          61.9778   85.7002   17.5160 O.3     1  UNL1       -0.4701
     18 S          63.9333   88.9769   15.1792 S.O2    1  UNL1        0.0737
     19 O          62.6335   89.6769   15.4447 O.2     1  UNL1       -0.1499
     20 O          65.2331   88.2769   14.9136 O.2     1  UNL1       -0.1499
     21 C          64.3800   90.1289   14.3287 C.ar    1  UNL1        0.1251
     22 C          63.8421   90.2868   12.9373 C.ar    1  UNL1        0.0240
     23 C          64.2888   91.4388   12.0868 C.ar    1  UNL1        0.0727
     24 C          65.2733   92.4330   12.6277 C.ar    1  UNL1        0.0078
     25 C          65.8111   92.2751   14.0190 C.ar    1  UNL1        0.0727
     26 C          65.3644   91.1230   14.8695 C.ar    1  UNL1        0.0240
     27 C          63.7509   91.5968   10.6955 C.3     1  UNL1        0.4186
     28 F          63.2131   91.7547    9.3042 F       1  UNL1       -0.1659
     29 F          62.9594   90.3331   10.8580 F       1  UNL1       -0.1659
     30 F          64.5425   92.8605   10.5330 F       1  UNL1       -0.1659
     31 C          66.7956   93.2692   14.5599 C.3     1  UNL1        0.4186
     32 F          67.7801   94.2633   15.1007 F       1  UNL1       -0.1659
     33 F          66.3615   94.2629   13.5235 F       1  UNL1       -0.1659
     34 F          67.2297   92.2755   15.5963 F       1  UNL1       -0.1659
@<TRIPOS>BOND
     1    16    17    1
     2    17     3    1
     3     3     4   ar
     4     4     5   ar
     5     5     9    1
     6     9    10   ar
     7    10    11   ar
     8    11    12   ar
     9    12    13   ar
    10    13    14    1
    11    13    15   ar
    12     5     6   ar
    13     6     7   ar
    14     7     8   ar
    15     8     1    1
    16     1    18    1
    17    18    19    2
    18    18    20    2
    19    18    21    1
    20    21    22   ar
    21    22    23   ar
    22    23    27    1
    23    27    28    1
    24    27    29    1
    25    27    30    1
    26    23    24   ar
    27    24    25   ar
    28    25    31    1
    29    31    32    1
    30    31    33    1
    31    31    34    1
    32    25    26   ar
    33     8     3   ar
    34    26    21   ar
    35    15     9   ar
    36     1     2    1
@<TRIPOS>MOLECULE
*****
 34 36 0 0 0
SMALL
GASTEIGER

@<TRIPOS>ATOM
      1 N          62.6568   90.1097   13.9178 N.pl3   1  UNL1       -0.2120
      2 H          62.1462   90.0563   14.7578 H       1  UNL1        0.1738
      3 C          62.8213   87.9563   12.4735 C.ar    1  UNL1        0.1532
      4 C          62.3891   87.1559   11.2809 C.ar    1  UNL1        0.0382
      5 C          61.3601   87.7086   10.3397 C.ar    1  UNL1        0.0032
      6 C          60.7633   89.0615   10.5913 C.ar    1  UNL1        0.0015
      7 C          61.1956   89.8619   11.7840 C.ar    1  UNL1        0.0189
      8 C          62.2246   89.3093   12.7251 C.ar    1  UNL1        0.0986
      9 C          60.9278   86.9081    9.1470 C.ar    1  UNL1        0.0028
     10 C          59.4960   86.9404    8.7011 C.ar    1  UNL1        0.0207
     11 C          59.0637   86.1400    7.5084 C.ar    1  UNL1        0.0984
     12 N          60.0633   85.3074    6.7616 N.ar    1  UNL1       -0.2481
     13 C          61.4951   85.2751    7.2075 C.ar    1  UNL1        0.0594
     14 C          62.4946   84.4426    6.4608 C.3     1  UNL1        0.0521
     15 C          61.9273   86.0756    8.4002 C.ar    1  UNL1        0.0147
     16 C          63.7880   85.9646   13.8333 C.3     1  UNL1        0.2525
     17 O          63.8504   87.4037   13.4147 O.3     1  UNL1       -0.4701
     18 S          63.8672   90.9915   13.8307 S.O2    1  UNL1        0.0737
     19 O          63.9596   90.7191   12.3585 O.2     1  UNL1       -0.1499
     20 O          63.7748   91.2638   15.3028 O.2     1  UNL1       -0.1499
     21 C          65.0775   91.8732   13.7435 C.ar    1  UNL1        0.1251
     22 C          65.2376   92.8149   12.5869 C.ar    1  UNL1        0.0240
     23 C          66.4480   93.6967   12.4997 C.ar    1  UNL1        0.0727
     24 C          67.4981   93.6368   13.5692 C.ar    1  UNL1        0.0078
     25 C          67.3380   92.6951   14.7257 C.ar    1  UNL1        0.0727
     26 C          66.1276   91.8134   14.8129 C.ar    1  UNL1        0.0240
     27 C          66.6081   94.6383   11.3432 C.3     1  UNL1        0.4186
     28 F          66.7683   95.5800   10.1867 F       1  UNL1       -0.1659
     29 F          66.0686   95.7593   12.1812 F       1  UNL1       -0.1659
     30 F          67.1477   93.5174   10.5052 F       1  UNL1       -0.1659
     31 C          68.3881   92.6352   15.7951 C.3     1  UNL1        0.4186
     32 F          69.4382   92.5753   16.8645 F       1  UNL1       -0.1659
     33 F          68.0565   91.1930   16.0399 F       1  UNL1       -0.1659
     34 F          68.7197   94.0774   15.5504 F       1  UNL1       -0.1659
@<TRIPOS>BOND
     1    16    17    1
     2    17     3    1
     3     3     4   ar
     4     4     5   ar
     5     5     9    1
     6     9    10   ar
     7    10    11   ar
     8    11    12   ar
     9    12    13   ar
    10    13    14    1
    11    13    15   ar
    12     5     6   ar
    13     6     7   ar
    14     7     8   ar
    15     8     1    1
    16     1    18    1
    17    18    19    2
    18    18    20    2
    19    18    21    1
    20    21    22   ar
    21    22    23   ar
    22    23    27    1
    23    27    28    1
    24    27    29    1
    25    27    30    1
    26    23    24   ar
    27    24    25   ar
    28    25    31    1
    29    31    32    1
    30    31    33    1
    31    31    34    1
    32    25    26   ar
    33     8     3   ar
    34    26    21   ar
    35    15     9   ar
    36     1     2    1
