@<TRIPOS>MOLECULE
*****
 29 32 0 0 0
SMALL
GASTEIGER

@<TRIPOS>ATOM
      1 C          63.0931   90.6555   10.8762 C.3     1  UNL1        0.1747
      2 C          63.4958   90.4831   12.3108 C.3     1  UNL1        0.0407
      3 C          64.5890   91.3313   12.8899 C.3     1  UNL1        0.0431
      4 C          64.9918   91.1590   14.3246 C.3     1  UNL1        0.0921
      5 S          66.0850   92.0071   14.9037 S.3     1  UNL1       -0.0787
      6 C          66.7755   93.0275   14.0483 C.2     1  UNL1        0.1483
      7 N          67.8688   93.8757   14.6275 N.pl3   1  UNL1       -0.3380
      8 N          66.3729   93.1999   12.6137 N.2     1  UNL1       -0.2484
      9 C          65.2796   92.3517   12.0345 C.3     1  UNL1        0.1352
     10 C          64.8769   92.5241   10.5999 C.3     1  UNL1        0.1691
     11 O          63.7837   91.6759   10.0207 O.3     1  UNL1       -0.3462
     12 H          68.1331   93.7626   15.5691 H       1  UNL1        0.1442
     13 H          68.3221   94.5455   14.0661 H       1  UNL1        0.1442
     14 C          65.9701   93.3722   11.1790 C.ar    1  UNL1        0.0278
     15 C          65.4697   94.7860   11.1465 C.ar    1  UNL1        0.0021
     16 C          66.1603   95.8064   10.2910 C.ar    1  UNL1        0.0295
     17 C          67.3512   95.4131    9.4682 C.ar    1  UNL1        0.1424
     18 F          68.0418   96.4336    8.6127 F       1  UNL1       -0.2041
     19 C          67.8516   93.9995    9.5007 C.ar    1  UNL1        0.0590
     20 C          67.1610   92.9790   10.3562 C.ar    1  UNL1        0.1402
     21 F          67.6613   91.5653   10.3888 F       1  UNL1       -0.2044
     22 C          60.4624   86.5535    8.8429 C.3     1  UNL1        0.0557
     23 C          60.7907   87.9218    9.3623 C.ar    1  UNL1        0.1008
     24 C          62.1228   88.3698    9.8865 C.ar    1  UNL1        0.0561
     25 C          61.9998   89.8073   10.2969 C.ar    1  UNL1        0.1809
     26 O          60.5917   90.2478   10.0265 O.2     1  UNL1       -0.3556
     27 N          59.8444   89.0825    9.4489 N.ar    1  UNL1       -0.0817
     28 C          64.3012   90.1385   15.1800 C.3     1  UNL1        0.2044
     29 F          64.5503   88.6769   14.9527 F       1  UNL1       -0.2334
@<TRIPOS>BOND
     1    22    23    1
     2    23    24   ar
     3    24    25   ar
     4     1    25    1
     5     1     2    1
     6     3     2    1
     7     3     4    1
     8     4    28    1
     9    28    29    1
    10     4     5    1
    11     5     6    1
    12     6     7    1
    13     6     8    2
    14     8     9    1
    15     9    14    1
    16    14    15   ar
    17    15    16   ar
    18    16    17   ar
    19    17    18    1
    20    17    19   ar
    21    19    20   ar
    22    20    21    1
    23     9    10    1
    24    10    11    1
    25    25    26   ar
    26    26    27   ar
    27    27    23   ar
    28    11     1    1
    29     9     3    1
    30    20    14   ar
    31     7    12    1
    32     7    13    1
@<TRIPOS>MOLECULE
*****
 29 32 0 0 0
SMALL
GASTEIGER

@<TRIPOS>ATOM
      1 C          63.0396   88.9595   12.8485 C.3     1  UNL1        0.1747
      2 C          61.9974   89.4382   11.8818 C.3     1  UNL1        0.0407
      3 C          61.4428   88.4999   10.8513 C.3     1  UNL1        0.0431
      4 C          60.4005   88.9787    9.8846 C.3     1  UNL1        0.0921
      5 S          59.8460   88.0404    8.8540 S.3     1  UNL1       -0.0787
      6 C          60.3337   86.6233    8.7902 C.2     1  UNL1        0.1483
      7 N          59.7791   85.6850    7.7596 N.pl3   1  UNL1       -0.3380
      8 N          61.3759   86.1445    9.7569 N.2     1  UNL1       -0.2484
      9 C          61.9305   87.0829   10.7875 C.3     1  UNL1        0.1352
     10 C          62.9727   86.6041   11.7541 C.3     1  UNL1        0.1691
     11 O          63.5273   87.5424   12.7847 O.3     1  UNL1       -0.3462
     12 H          59.0950   85.9992    7.1251 H       1  UNL1        0.1442
     13 H          60.0991   84.7549    7.7177 H       1  UNL1        0.1442
     14 C          62.4182   85.6658   10.7236 C.ar    1  UNL1        0.0278
     15 C          62.1290   84.7215   11.8527 C.ar    1  UNL1        0.0021
     16 C          62.6167   83.3044   11.7889 C.ar    1  UNL1        0.0295
     17 C          63.3936   82.8316   10.5959 C.ar    1  UNL1        0.1424
     18 F          63.8812   81.4146   10.5321 F       1  UNL1       -0.2041
     19 C          63.6827   83.7759    9.4669 C.ar    1  UNL1        0.0590
     20 C          63.1950   85.1930    9.5308 C.ar    1  UNL1        0.1402
     21 F          63.4842   86.1372    8.4018 F       1  UNL1       -0.2044
     22 C          66.2623   92.2583   15.4201 C.3     1  UNL1        0.0557
     23 C          65.0755   91.4141   15.0611 C.ar    1  UNL1        0.1008
     24 C          64.9360   90.5665   13.8314 C.ar    1  UNL1        0.0561
     25 C          63.5942   89.8978   13.8791 C.ar    1  UNL1        0.1809
     26 O          62.9043   90.3321   15.1382 O.2     1  UNL1       -0.3556
     27 N          63.8198   91.2692   15.8687 N.ar    1  UNL1       -0.0817
     28 C          59.9129   90.3957    9.9484 C.3     1  UNL1        0.2044
     29 F          59.1392   90.8696   11.1429 F       1  UNL1       -0.2334
@<TRIPOS>BOND
     1    22    23    1
     2    23    24   ar
     3    24    25   ar
     4     1    25    1
     5     1     2    1
     6     3     2    1
     7     3     4    1
     8     4    28    1
     9    28    29    1
    10     4     5    1
    11     5     6    1
    12     6     7    1
    13     6     8    2
    14     8     9    1
    15     9    14    1
    16    14    15   ar
    17    15    16   ar
    18    16    17   ar
    19    17    18    1
    20    17    19   ar
    21    19    20   ar
    22    20    21    1
    23     9    10    1
    24    10    11    1
    25    25    26   ar
    26    26    27   ar
    27    27    23   ar
    28    11     1    1
    29     9     3    1
    30    20    14   ar
    31     7    12    1
    32     7    13    1
@<TRIPOS>MOLECULE
*****
 29 32 0 0 0
SMALL
GASTEIGER

@<TRIPOS>ATOM
      1 C          61.2584   86.8438   10.2760 C.3     1  UNL1        0.1747
      2 C          61.9568   87.8592   11.1311 C.3     1  UNL1        0.0407
      3 C          62.8125   87.4119   12.2790 C.3     1  UNL1        0.0431
      4 C          63.5109   88.4274   13.1341 C.3     1  UNL1        0.0921
      5 S          64.3666   87.9801   14.2820 S.3     1  UNL1       -0.0787
      6 C          64.5238   86.5174   14.5748 C.2     1  UNL1        0.1483
      7 N          65.3796   86.0701   15.7228 N.pl3   1  UNL1       -0.3380
      8 N          63.8254   85.5020   13.7198 N.2     1  UNL1       -0.2484
      9 C          62.9697   85.9492   12.5718 C.3     1  UNL1        0.1352
     10 C          62.2713   84.9338   11.7168 C.3     1  UNL1        0.1691
     11 O          61.4156   85.3811   10.5689 O.3     1  UNL1       -0.3462
     12 H          65.8380   86.7366   16.2840 H       1  UNL1        0.1442
     13 H          65.4828   85.1101   15.9150 H       1  UNL1        0.1442
     14 C          63.1270   84.4865   12.8647 C.ar    1  UNL1        0.0278
     15 C          64.0488   83.6491   12.0285 C.ar    1  UNL1        0.0021
     16 C          64.2060   82.1864   12.3214 C.ar    1  UNL1        0.0295
     17 C          63.4415   81.5611   13.4504 C.ar    1  UNL1        0.1424
     18 F          63.5987   80.0984   13.7433 F       1  UNL1       -0.2041
     19 C          62.5197   82.3986   14.2865 C.ar    1  UNL1        0.0590
     20 C          62.3625   83.8613   13.9936 C.ar    1  UNL1        0.1402
     21 F          61.4407   84.6987   14.8297 F       1  UNL1       -0.2044
     22 C          59.1209   89.8017    6.4599 C.3     1  UNL1        0.0557
     23 C          59.4202   88.6507    7.3740 C.ar    1  UNL1        0.1008
     24 C          60.4406   88.6402    8.4734 C.ar    1  UNL1        0.0561
     25 C          60.4027   87.2911    9.1280 C.ar    1  UNL1        0.1809
     26 O          59.3589   86.4679    8.4332 O.2     1  UNL1       -0.3556
     27 N          58.7517   87.3081    7.3492 N.ar    1  UNL1       -0.0817
     28 C          63.3537   89.8901   12.8412 C.3     1  UNL1        0.2044
     29 F          63.8866   90.4600   11.5601 F       1  UNL1       -0.2334
@<TRIPOS>BOND
     1    22    23    1
     2    23    24   ar
     3    24    25   ar
     4     1    25    1
     5     1     2    1
     6     3     2    1
     7     3     4    1
     8     4    28    1
     9    28    29    1
    10     4     5    1
    11     5     6    1
    12     6     7    1
    13     6     8    2
    14     8     9    1
    15     9    14    1
    16    14    15   ar
    17    15    16   ar
    18    16    17   ar
    19    17    18    1
    20    17    19   ar
    21    19    20   ar
    22    20    21    1
    23     9    10    1
    24    10    11    1
    25    25    26   ar
    26    26    27   ar
    27    27    23   ar
    28    11     1    1
    29     9     3    1
    30    20    14   ar
    31     7    12    1
    32     7    13    1
@<TRIPOS>MOLECULE
*****
 29 32 0 0 0
SMALL
GASTEIGER

@<TRIPOS>ATOM
      1 C          62.9675   90.7989   11.2859 C.3     1  UNL1        0.1747
      2 C          63.4134   90.6880   12.7137 C.3     1  UNL1        0.0407
      3 C          64.6731   91.3685   13.1611 C.3     1  UNL1        0.0431
      4 C          65.1190   91.2575   14.5890 C.3     1  UNL1        0.0921
      5 S          66.3787   91.9380   15.0363 S.3     1  UNL1       -0.0787
      6 C          67.1925   92.7294   14.0558 C.2     1  UNL1        0.1483
      7 N          68.4522   93.4100   14.5032 N.pl3   1  UNL1       -0.3380
      8 N          66.7466   92.8404   12.6280 N.2     1  UNL1       -0.2484
      9 C          65.4868   92.1599   12.1806 C.3     1  UNL1        0.1352
     10 C          65.0409   92.2708   10.7527 C.3     1  UNL1        0.1691
     11 O          63.7813   91.5904   10.3054 O.3     1  UNL1       -0.3462
     12 H          68.7448   93.3371   15.4404 H       1  UNL1        0.1442
     13 H          68.9863   93.9294   13.8597 H       1  UNL1        0.1442
     14 C          66.3006   92.9513   11.2000 C.ar    1  UNL1        0.0278
     15 C          67.2274   92.2474   10.2537 C.ar    1  UNL1        0.0021
     16 C          68.0412   93.0388    9.2732 C.ar    1  UNL1        0.0295
     17 C          67.9281   94.5342    9.2390 C.ar    1  UNL1        0.1424
     18 F          68.7419   95.3256    8.2585 F       1  UNL1       -0.2041
     19 C          67.0013   95.2381   10.1853 C.ar    1  UNL1        0.0590
     20 C          66.1875   94.4466   11.1658 C.ar    1  UNL1        0.1402
     21 F          65.2607   95.1505   12.1121 F       1  UNL1       -0.2044
     22 C          59.5623   87.8298    8.5527 C.3     1  UNL1        0.0557
     23 C          60.1426   88.7537    9.5822 C.ar    1  UNL1        0.1008
     24 C          61.5713   89.2046    9.6568 C.ar    1  UNL1        0.0561
     25 C          61.7078   90.1184   10.8385 C.ar    1  UNL1        0.1809
     26 O          60.3635   90.2322   11.4942 O.2     1  UNL1       -0.3556
     27 N          59.3962   89.3888   10.7178 N.ar    1  UNL1       -0.0817
     28 C          64.3053   90.4661   15.5695 C.3     1  UNL1        0.2044
     29 F          63.7027   91.1442   16.7641 F       1  UNL1       -0.2334
@<TRIPOS>BOND
     1    22    23    1
     2    23    24   ar
     3    24    25   ar
     4     1    25    1
     5     1     2    1
     6     3     2    1
     7     3     4    1
     8     4    28    1
     9    28    29    1
    10     4     5    1
    11     5     6    1
    12     6     7    1
    13     6     8    2
    14     8     9    1
    15     9    14    1
    16    14    15   ar
    17    15    16   ar
    18    16    17   ar
    19    17    18    1
    20    17    19   ar
    21    19    20   ar
    22    20    21    1
    23     9    10    1
    24    10    11    1
    25    25    26   ar
    26    26    27   ar
    27    27    23   ar
    28    11     1    1
    29     9     3    1
    30    20    14   ar
    31     7    12    1
    32     7    13    1
@<TRIPOS>MOLECULE
*****
 29 32 0 0 0
SMALL
GASTEIGER

@<TRIPOS>ATOM
      1 C          61.8565   86.8146   10.8770 C.3     1  UNL1        0.1747
      2 C          62.6474   87.2359   12.0798 C.3     1  UNL1        0.0407
      3 C          63.3032   86.2017   12.9461 C.3     1  UNL1        0.0431
      4 C          64.0941   86.6230   14.1490 C.3     1  UNL1        0.0921
      5 S          64.7499   85.5888   15.0153 S.3     1  UNL1       -0.0787
      6 C          64.6147   84.1333   14.6786 C.2     1  UNL1        0.1483
      7 N          65.2705   83.0991   15.5450 N.pl3   1  UNL1       -0.3380
      8 N          63.8238   83.7120   13.4758 N.2     1  UNL1       -0.2484
      9 C          63.1680   84.7463   12.6095 C.3     1  UNL1        0.1352
     10 C          62.3771   84.3250   11.4066 C.3     1  UNL1        0.1691
     11 O          61.7214   85.3592   10.5403 O.3     1  UNL1       -0.3462
     12 H          65.7896   83.3756   16.3345 H       1  UNL1        0.1442
     13 H          65.1817   82.1438   15.3240 H       1  UNL1        0.1442
     14 C          63.0328   83.2908   12.2728 C.ar    1  UNL1        0.0278
     15 C          62.1837   82.3987   13.1291 C.ar    1  UNL1        0.0021
     16 C          62.0485   80.9432   12.7925 C.ar    1  UNL1        0.0295
     17 C          62.7624   80.3798   11.5996 C.ar    1  UNL1        0.1424
     18 F          62.6273   78.9244   11.2629 F       1  UNL1       -0.2041
     19 C          63.6115   81.2719   10.7434 C.ar    1  UNL1        0.0590
     20 C          63.7467   82.7274   11.0800 C.ar    1  UNL1        0.1402
     21 F          64.5958   83.6195   10.2238 F       1  UNL1       -0.2044
     22 C          59.2260   89.1141    6.9179 C.3     1  UNL1        0.0557
     23 C          59.9916   88.9058    8.1909 C.ar    1  UNL1        0.1008
     24 C          60.4917   87.5919    8.7140 C.ar    1  UNL1        0.0561
     25 C          61.2008   87.8489   10.0107 C.ar    1  UNL1        0.1809
     26 O          61.1389   89.3215   10.2889 O.2     1  UNL1       -0.3556
     27 N          60.3917   89.9747    9.1642 N.ar    1  UNL1       -0.0817
     28 C          64.2293   88.0785   14.4857 C.3     1  UNL1        0.2044
     29 F          63.7238   88.5943   15.8003 F       1  UNL1       -0.2334
@<TRIPOS>BOND
     1    22    23    1
     2    23    24   ar
     3    24    25   ar
     4     1    25    1
     5     1     2    1
     6     3     2    1
     7     3     4    1
     8     4    28    1
     9    28    29    1
    10     4     5    1
    11     5     6    1
    12     6     7    1
    13     6     8    2
    14     8     9    1
    15     9    14    1
    16    14    15   ar
    17    15    16   ar
    18    16    17   ar
    19    17    18    1
    20    17    19   ar
    21    19    20   ar
    22    20    21    1
    23     9    10    1
    24    10    11    1
    25    25    26   ar
    26    26    27   ar
    27    27    23   ar
    28    11     1    1
    29     9     3    1
    30    20    14   ar
    31     7    12    1
    32     7    13    1
@<TRIPOS>MOLECULE
*****
 29 32 0 0 0
SMALL
GASTEIGER

@<TRIPOS>ATOM
      1 C          64.3249   88.5218   14.4074 C.3     1  UNL1        0.1747
      2 C          63.7380   89.1055   13.1565 C.3     1  UNL1        0.0407
      3 C          64.2316   90.4249   12.6412 C.3     1  UNL1        0.0431
      4 C          63.6447   91.0086   11.3902 C.3     1  UNL1        0.0921
      5 S          64.1383   92.3280   10.8750 S.3     1  UNL1       -0.0787
      6 C          65.2189   93.0637   11.6106 C.2     1  UNL1        0.1483
      7 N          65.7125   94.3831   11.0953 N.pl3   1  UNL1       -0.3380
      8 N          65.8058   92.4800   12.8615 N.2     1  UNL1       -0.2484
      9 C          65.3121   91.1606   13.3769 C.3     1  UNL1        0.1352
     10 C          65.8990   90.5769   14.6278 C.3     1  UNL1        0.1691
     11 O          65.4054   89.2575   15.1430 O.3     1  UNL1       -0.3462
     12 H          65.3273   94.7662   10.2743 H       1  UNL1        0.1442
     13 H          66.4217   94.8660   11.5781 H       1  UNL1        0.1442
     14 C          66.3927   91.8963   14.1125 C.ar    1  UNL1        0.0278
     15 C          66.0717   92.6263   15.3831 C.ar    1  UNL1        0.0021
     16 C          67.1523   93.3620   16.1187 C.ar    1  UNL1        0.0295
     17 C          68.5537   93.3677   15.5839 C.ar    1  UNL1        0.1424
     18 F          69.6342   94.1034   16.3195 F       1  UNL1       -0.2041
     19 C          68.8746   92.6377   14.3134 C.ar    1  UNL1        0.0590
     20 C          67.7940   91.9020   13.5777 C.ar    1  UNL1        0.1402
     21 F          68.1149   91.1721   12.3073 F       1  UNL1       -0.2044
     22 C          63.3426   83.3525   14.8488 C.3     1  UNL1        0.0557
     23 C          63.3798   84.8263   15.1256 C.ar    1  UNL1        0.1008
     24 C          64.0396   85.8675   14.2709 C.ar    1  UNL1        0.0561
     25 C          63.8313   87.2024   14.9227 C.ar    1  UNL1        0.1809
     26 O          63.0427   86.9862   16.1802 O.2     1  UNL1       -0.3556
     27 N          62.7636   85.5177   16.3056 N.ar    1  UNL1       -0.0817
     28 C          62.5642   90.2729   10.6546 C.3     1  UNL1        0.2044
     29 F          62.8706   88.9691    9.9791 F       1  UNL1       -0.2334
@<TRIPOS>BOND
     1    22    23    1
     2    23    24   ar
     3    24    25   ar
     4     1    25    1
     5     1     2    1
     6     3     2    1
     7     3     4    1
     8     4    28    1
     9    28    29    1
    10     4     5    1
    11     5     6    1
    12     6     7    1
    13     6     8    2
    14     8     9    1
    15     9    14    1
    16    14    15   ar
    17    15    16   ar
    18    16    17   ar
    19    17    18    1
    20    17    19   ar
    21    19    20   ar
    22    20    21    1
    23     9    10    1
    24    10    11    1
    25    25    26   ar
    26    26    27   ar
    27    27    23   ar
    28    11     1    1
    29     9     3    1
    30    20    14   ar
    31     7    12    1
    32     7    13    1
@<TRIPOS>MOLECULE
*****
 29 32 0 0 0
SMALL
GASTEIGER

@<TRIPOS>ATOM
      1 C          63.8259   88.7188   13.5714 C.3     1  UNL1        0.1747
      2 C          64.0774   87.4086   14.2568 C.3     1  UNL1        0.0407
      3 C          63.6497   86.1270   13.6052 C.3     1  UNL1        0.0431
      4 C          63.9012   84.8167   14.2907 C.3     1  UNL1        0.0921
      5 S          63.4735   83.5352   13.6390 S.3     1  UNL1       -0.0787
      6 C          62.7944   83.5639   12.3019 C.2     1  UNL1        0.1483
      7 N          62.3667   82.2822   11.6502 N.pl3   1  UNL1       -0.3380
      8 N          62.5429   84.8741   11.6164 N.2     1  UNL1       -0.2484
      9 C          62.9706   86.1558   12.2681 C.3     1  UNL1        0.1352
     10 C          62.7191   87.4660   11.5826 C.3     1  UNL1        0.1691
     11 O          63.1468   88.7476   12.2342 O.3     1  UNL1       -0.3462
     12 H          62.5317   81.4223   12.1002 H       1  UNL1        0.1442
     13 H          61.9209   82.3011   10.7726 H       1  UNL1        0.1442
     14 C          62.2914   86.1845   10.9309 C.ar    1  UNL1        0.0278
     15 C          62.9878   85.6293    9.7239 C.ar    1  UNL1        0.0021
     16 C          62.3086   85.6580    8.3868 C.ar    1  UNL1        0.0295
     17 C          60.9331   86.2419    8.2567 C.ar    1  UNL1        0.1424
     18 F          60.2539   86.2706    6.9196 F       1  UNL1       -0.2041
     19 C          60.2367   86.7971    9.4637 C.ar    1  UNL1        0.0590
     20 C          60.9159   86.7684   10.8008 C.ar    1  UNL1        0.1402
     21 F          60.2195   87.3236   12.0078 F       1  UNL1       -0.2044
     22 C          66.4963   93.1326   14.6977 C.3     1  UNL1        0.0557
     23 C          65.4811   92.0293   14.7407 C.ar    1  UNL1        0.1008
     24 C          65.4262   90.8454   13.8213 C.ar    1  UNL1        0.0561
     25 C          64.2536   90.0005   14.2230 C.ar    1  UNL1        0.1809
     26 O          63.5839   90.6622   15.3907 O.2     1  UNL1       -0.3556
     27 N          64.3425   91.9160   15.7107 N.ar    1  UNL1       -0.0817
     28 C          64.5804   84.7880   15.6278 C.3     1  UNL1        0.2044
     29 F          63.9883   85.5350   16.7859 F       1  UNL1       -0.2334
@<TRIPOS>BOND
     1    22    23    1
     2    23    24   ar
     3    24    25   ar
     4     1    25    1
     5     1     2    1
     6     3     2    1
     7     3     4    1
     8     4    28    1
     9    28    29    1
    10     4     5    1
    11     5     6    1
    12     6     7    1
    13     6     8    2
    14     8     9    1
    15     9    14    1
    16    14    15   ar
    17    15    16   ar
    18    16    17   ar
    19    17    18    1
    20    17    19   ar
    21    19    20   ar
    22    20    21    1
    23     9    10    1
    24    10    11    1
    25    25    26   ar
    26    26    27   ar
    27    27    23   ar
    28    11     1    1
    29     9     3    1
    30    20    14   ar
    31     7    12    1
    32     7    13    1
@<TRIPOS>MOLECULE
*****
 29 32 0 0 0
SMALL
GASTEIGER

@<TRIPOS>ATOM
      1 C          59.1741   93.5469   -1.2707 C.3     1  UNL1        0.1747
      2 C          59.7937   93.2388    0.0601 C.3     1  UNL1        0.0407
      3 C          61.2859   93.2462    0.2123 C.3     1  UNL1        0.0431
      4 C          61.9056   92.9381    1.5432 C.3     1  UNL1        0.0921
      5 S          63.3978   92.9455    1.6954 S.3     1  UNL1       -0.0787
      6 C          64.2704   93.2611    0.5169 C.2     1  UNL1        0.1483
      7 N          65.7627   93.2685    0.6692 N.pl3   1  UNL1       -0.3380
      8 N          63.6508   93.5692   -0.8140 N.2     1  UNL1       -0.2484
      9 C          62.1585   93.5617   -0.9663 C.3     1  UNL1        0.1352
     10 C          61.5389   93.8698   -2.2971 C.3     1  UNL1        0.1691
     11 O          60.0467   93.8624   -2.4493 O.3     1  UNL1       -0.3462
     12 H          66.1694   93.0663    1.5426 H       1  UNL1        0.1442
     13 H          66.3354   93.4756   -0.1044 H       1  UNL1        0.1442
     14 C          63.0311   93.8773   -2.1448 C.ar    1  UNL1        0.0278
     15 C          63.4377   92.7861   -3.0905 C.ar    1  UNL1        0.0021
     16 C          64.3103   93.1017   -4.2691 C.ar    1  UNL1        0.0295
     17 C          64.7763   94.5084   -4.5020 C.ar    1  UNL1        0.1424
     18 F          65.6489   94.8239   -5.6805 F       1  UNL1       -0.2041
     19 C          64.3697   95.5994   -3.5563 C.ar    1  UNL1        0.0590
     20 C          63.4971   95.2839   -2.3777 C.ar    1  UNL1        0.1402
     21 F          63.0906   96.3749   -1.4321 F       1  UNL1       -0.2044
     22 C          54.1847   95.1476   -1.9221 C.3     1  UNL1        0.0557
     23 C          55.3885   94.2753   -1.7224 C.ar    1  UNL1        0.1008
     24 C          56.8095   94.7440   -1.6178 C.ar    1  UNL1        0.0561
     25 C          57.6818   93.5394   -1.4230 C.ar    1  UNL1        0.1809
     26 O          56.8000   92.3262   -1.4073 O.2     1  UNL1       -0.3556
     27 N          55.3826   92.7809   -1.5924 N.ar    1  UNL1       -0.0817
     28 C          61.0330   92.6225    2.7217 C.3     1  UNL1        0.2044
     29 F          60.1313   93.6774    3.2911 F       1  UNL1       -0.2334
@<TRIPOS>BOND
     1    22    23    1
     2    23    24   ar
     3    24    25   ar
     4     1    25    1
     5     1     2    1
     6     3     2    1
     7     3     4    1
     8     4    28    1
     9    28    29    1
    10     4     5    1
    11     5     6    1
    12     6     7    1
    13     6     8    2
    14     8     9    1
    15     9    14    1
    16    14    15   ar
    17    15    16   ar
    18    16    17   ar
    19    17    18    1
    20    17    19   ar
    21    19    20   ar
    22    20    21    1
    23     9    10    1
    24    10    11    1
    25    25    26   ar
    26    26    27   ar
    27    27    23   ar
    28    11     1    1
    29     9     3    1
    30    20    14   ar
    31     7    12    1
    32     7    13    1
@<TRIPOS>MOLECULE
*****
 29 32 0 0 0
SMALL
GASTEIGER

@<TRIPOS>ATOM
      1 C          64.3565   90.1094   14.0884 C.3     1  UNL1        0.1747
      2 C          64.5405   88.6612   14.4330 C.3     1  UNL1        0.0407
      3 C          63.8576   87.6036   13.6175 C.3     1  UNL1        0.0431
      4 C          64.0415   86.1553   13.9620 C.3     1  UNL1        0.0921
      5 S          63.3586   85.0978   13.1465 S.3     1  UNL1       -0.0787
      6 C          62.4917   85.4884   11.9864 C.2     1  UNL1        0.1483
      7 N          61.8087   84.4308   11.1708 N.pl3   1  UNL1       -0.3380
      8 N          62.3077   86.9367   11.6418 N.2     1  UNL1       -0.2484
      9 C          62.9907   87.9943   12.4574 C.3     1  UNL1        0.1352
     10 C          62.8067   89.4425   12.1128 C.3     1  UNL1        0.1691
     11 O          63.4896   90.5001   12.9283 O.3     1  UNL1       -0.3462
     12 H          61.9295   83.4803   11.3970 H       1  UNL1        0.1442
     13 H          61.2397   84.6872   10.4094 H       1  UNL1        0.1442
     14 C          62.1237   88.3850   11.2972 C.ar    1  UNL1        0.0278
     15 C          62.5162   87.9951    9.9029 C.ar    1  UNL1        0.0021
     16 C          61.6493   88.3857    8.7428 C.ar    1  UNL1        0.0295
     17 C          60.3899   89.1663    8.9770 C.ar    1  UNL1        0.1424
     18 F          59.5230   89.5570    7.8169 F       1  UNL1       -0.2041
     19 C          59.9975   89.5562   10.3713 C.ar    1  UNL1        0.0590
     20 C          60.8645   89.1655   11.5314 C.ar    1  UNL1        0.1402
     21 F          60.4721   89.5554   12.9256 F       1  UNL1       -0.2044
     22 C          67.9870   93.4841   15.9084 C.3     1  UNL1        0.0557
     23 C          66.7083   92.7182   15.7405 C.ar    1  UNL1        0.1008
     24 C          66.4405   91.6652   14.7063 C.ar    1  UNL1        0.0561
     25 C          65.0395   91.1670   14.9040 C.ar    1  UNL1        0.1809
     26 O          64.4414   91.9121   16.0603 O.2     1  UNL1       -0.3556
     27 N          65.4727   92.8708   16.5773 N.ar    1  UNL1       -0.0817
     28 C          64.9084   85.7646   15.1221 C.3     1  UNL1        0.2044
     29 F          64.3006   85.5648   16.4788 F       1  UNL1       -0.2334
@<TRIPOS>BOND
     1    22    23    1
     2    23    24   ar
     3    24    25   ar
     4     1    25    1
     5     1     2    1
     6     3     2    1
     7     3     4    1
     8     4    28    1
     9    28    29    1
    10     4     5    1
    11     5     6    1
    12     6     7    1
    13     6     8    2
    14     8     9    1
    15     9    14    1
    16    14    15   ar
    17    15    16   ar
    18    16    17   ar
    19    17    18    1
    20    17    19   ar
    21    19    20   ar
    22    20    21    1
    23     9    10    1
    24    10    11    1
    25    25    26   ar
    26    26    27   ar
    27    27    23   ar
    28    11     1    1
    29     9     3    1
    30    20    14   ar
    31     7    12    1
    32     7    13    1
