@<TRIPOS>MOLECULE
*****
 60 66 0 0 0
SMALL
GASTEIGER

@<TRIPOS>ATOM
      1 N          59.5120   95.7685   -4.5152 N.3     1  UNL1       -0.1862
      2 C          60.6706   95.8522   -5.4642 C.3     1  UNL1        0.1775
      3 C          62.0749   95.7867   -4.9410 C.2     1  UNL1        0.2452
      4 O          63.2335   95.8705   -5.8900 O.2     1  UNL1       -0.2732
      5 N          62.3205   95.6374   -3.4688 N.am    1  UNL1       -0.2541
      6 C          63.7248   95.5719   -2.9456 C.3     1  UNL1        0.1577
      7 C          63.9705   95.4226   -1.4735 C.2     1  UNL1        0.2445
      8 O          65.3747   95.3571   -0.9503 O.2     1  UNL1       -0.2731
      9 N          62.8118   95.3388   -0.5244 N.am    1  UNL1       -0.2705
     10 C          61.4076   95.4043   -1.0476 C.3     1  UNL1        0.1359
     11 C          61.1619   95.5536   -2.5199 C.3     1  UNL1        0.1908
     12 N          59.7577   95.6192   -3.0431 N.am    1  UNL1       -0.1863
     13 C          58.5990   95.5354   -2.0940 C.2     1  UNL1        0.3191
     14 O          58.8447   95.3861   -0.6219 O.2     1  UNL1       -0.2512
     15 N          57.1948   95.6009   -2.6172 N.am    1  UNL1       -0.2836
     16 H          57.0335   95.6989   -3.5835 H       1  UNL1        0.1513
     17 C          58.1077   95.8340   -5.0384 C.3     1  UNL1        0.1188
     18 C          57.3956   93.3497   -5.3046 C.2     1  UNL1       -0.0034
     19 C          57.5712   94.7204   -5.8880 C.2     1  UNL1       -0.0071
     20 C          64.8834   95.6557   -3.8946 C.3     1  UNL1        0.0556
     21 C          65.1867   94.5076   -4.8111 C.ar    1  UNL1       -0.0198
     22 C          65.9848   94.7359   -6.0604 C.ar    1  UNL1       -0.0011
     23 C          66.2881   93.5879   -6.9770 C.ar    1  UNL1        0.0363
     24 C          65.7933   92.2116   -6.6442 C.ar    1  UNL1        0.1337
     25 O          66.0967   91.0635   -7.5607 O.3     1  UNL1       -0.5055
     26 C          64.9952   91.9832   -5.3948 C.ar    1  UNL1        0.0363
     27 C          64.6919   93.1312   -4.4783 C.ar    1  UNL1       -0.0011
     28 H          66.5952   91.2062   -8.3411 H       1  UNL1        0.2922
     29 C          63.0575   95.1895    0.9477 C.3     1  UNL1        0.1217
     30 C          62.7035   93.9072    1.6410 C.ar    1  UNL1        0.0135
     31 C          63.6218   92.7250    1.5461 C.ar    1  UNL1       -0.0012
     32 C          63.2679   91.4428    2.2392 C.ar    1  UNL1       -0.0002
     33 C          61.9955   91.3428    3.0273 C.ar    1  UNL1        0.0016
     34 C          61.0772   92.5250    3.1223 C.ar    1  UNL1        0.0214
     35 C          59.7649   92.7230    3.8214 C.ar    1  UNL1        0.0719
     36 C          59.3079   94.1276    3.5602 C.ar    1  UNL1        0.0805
     37 N          60.3376   94.7976    2.6998 N.ar    1  UNL1       -0.3241
     38 C          60.2835   96.2102    2.1981 C.3     1  UNL1        0.1305
     39 C          61.4312   93.8072    2.4291 C.ar    1  UNL1        0.0577
     40 C          59.0374   91.6965    4.6382 C.2     1  UNL1        0.2476
     41 O          57.5416   91.6065    4.5703 O.2     1  UNL1       -0.2701
     42 N          59.8057   90.7600    5.5230 N.am    1  UNL1       -0.2969
     43 H          60.7874   90.8191    5.5676 H       1  UNL1        0.1501
     44 C          59.0782   89.7336    6.3398 C.3     1  UNL1        0.1167
     45 C          59.7829   89.0318    7.4627 C.ar    1  UNL1        0.0018
     46 C          59.8086   87.5328    7.5115 C.ar    1  UNL1        0.0182
     47 C          60.5133   86.8310    8.6344 C.ar    1  UNL1        0.1000
     48 N          61.1921   87.6281    9.7086 N.ar    1  UNL1       -0.2292
     49 C          61.1663   89.1271    9.6598 C.ar    1  UNL1        0.1315
     50 C          60.4617   89.8289    8.5369 C.ar    1  UNL1        0.0317
     51 N          61.8451   89.9244   10.7339 N.pl3   1  UNL1       -0.2897
     52 C          61.4166   89.7741   12.1635 C.3     1  UNL1        0.1136
     53 C          62.9523   90.8718   10.3784 C.3     1  UNL1        0.1136
     54 C          56.0362   95.5171   -1.6682 C.3     1  UNL1        0.1177
     55 C          54.6411   95.7558   -2.1650 C.ar    1  UNL1       -0.0025
     56 C          54.3869   95.9279   -3.6332 C.ar    1  UNL1       -0.0026
     57 C          52.9918   96.1666   -4.1299 C.ar    1  UNL1       -0.0003
     58 C          51.8508   96.2331   -3.1584 C.ar    1  UNL1       -0.0000
     59 C          52.1050   96.0610   -1.6901 C.ar    1  UNL1       -0.0003
     60 C          53.5001   95.8223   -1.1934 C.ar    1  UNL1       -0.0026
@<TRIPOS>BOND
     1    18    19    2
     2    19    17    1
     3    17     1    1
     4     1     2    1
     5     2     3    1
     6     3     4    2
     7     3     5   am
     8     5     6    1
     9     6    20    1
    10    20    21    1
    11    21    22   ar
    12    22    23   ar
    13    23    24   ar
    14    24    25    1
    15    24    26   ar
    16    26    27   ar
    17     6     7    1
    18     7     8    2
    19     7     9   am
    20     9    29    1
    21    29    30    1
    22    30    31   ar
    23    31    32   ar
    24    32    33   ar
    25    33    34   ar
    26    34    35   ar
    27    35    40    1
    28    40    41    2
    29    40    42   am
    30    42    44    1
    31    44    45    1
    32    45    46   ar
    33    46    47   ar
    34    47    48   ar
    35    48    49   ar
    36    49    51    1
    37    51    52    1
    38    51    53    1
    39    49    50   ar
    40    35    36   ar
    41    36    37   ar
    42    37    38    1
    43    37    39   ar
    44     9    10    1
    45    11    10    1
    46    11    12    1
    47    12    13   am
    48    13    14    2
    49    13    15   am
    50    15    54    1
    51    54    55    1
    52    55    56   ar
    53    56    57   ar
    54    57    58   ar
    55    58    59   ar
    56    59    60   ar
    57    12     1    1
    58    60    55   ar
    59    11     5    1
    60    27    21   ar
    61    39    30   ar
    62    39    34   ar
    63    50    45   ar
    64    25    28    1
    65    42    43    1
    66    15    16    1
@<TRIPOS>MOLECULE
*****
 60 66 0 0 0
SMALL
GASTEIGER

@<TRIPOS>ATOM
      1 N          59.0291   96.0605   -4.7168 N.3     1  UNL1       -0.1862
      2 C          60.2196   96.0576   -5.6293 C.3     1  UNL1        0.1775
      3 C          61.5968   95.8724   -5.0647 C.2     1  UNL1        0.2452
      4 O          62.7874   95.8695   -5.9772 O.2     1  UNL1       -0.2732
      5 N          61.7836   95.6901   -3.5876 N.am    1  UNL1       -0.2541
      6 C          63.1609   95.5049   -3.0230 C.3     1  UNL1        0.1577
      7 C          63.3477   95.3226   -1.5459 C.2     1  UNL1        0.2445
      8 O          64.7250   95.1374   -0.9813 O.2     1  UNL1       -0.2731
      9 N          62.1571   95.3255   -0.6333 N.am    1  UNL1       -0.2705
     10 C          60.7798   95.5107   -1.1980 C.3     1  UNL1        0.1359
     11 C          60.5931   95.6930   -2.6751 C.3     1  UNL1        0.1908
     12 N          59.2158   95.8782   -3.2397 N.am    1  UNL1       -0.1863
     13 C          58.0253   95.8811   -2.3272 C.2     1  UNL1        0.3191
     14 O          58.2121   95.6988   -0.8501 O.2     1  UNL1       -0.2512
     15 N          56.6480   96.0663   -2.8918 N.am    1  UNL1       -0.2836
     16 H          56.5254   96.1859   -3.8613 H       1  UNL1        0.1513
     17 C          57.6518   96.2457   -5.2815 C.3     1  UNL1        0.1188
     18 C          56.7217   95.3736   -7.5451 C.2     1  UNL1       -0.0034
     19 C          57.0202   95.1529   -6.0918 C.2     1  UNL1       -0.0071
     20 C          64.3514   95.5020   -3.9354 C.3     1  UNL1        0.0556
     21 C          64.6086   94.3250   -4.8291 C.ar    1  UNL1       -0.0198
     22 C          64.1129   92.9643   -4.4384 C.ar    1  UNL1       -0.0011
     23 C          64.3701   91.7873   -5.3321 C.ar    1  UNL1        0.0363
     24 C          65.1230   91.9710   -6.6163 C.ar    1  UNL1        0.1337
     25 O          65.3802   90.7940   -7.5099 O.3     1  UNL1       -0.5055
     26 C          65.6187   93.3318   -7.0070 C.ar    1  UNL1        0.0363
     27 C          65.3615   94.5088   -6.1134 C.ar    1  UNL1       -0.0011
     28 H          65.0705   89.9440   -7.2659 H       1  UNL1        0.2922
     29 C          62.3439   95.1431    0.8438 C.3     1  UNL1        0.1217
     30 C          62.0617   93.8129    1.4769 C.ar    1  UNL1        0.0135
     31 C          62.8387   92.6013    1.0546 C.ar    1  UNL1       -0.0012
     32 C          62.5565   91.2711    1.6877 C.ar    1  UNL1       -0.0002
     33 C          61.4973   91.1524    2.7431 C.ar    1  UNL1        0.0016
     34 C          60.7203   92.3640    3.1654 C.ar    1  UNL1        0.0214
     35 C          59.6249   92.5530    4.1725 C.ar    1  UNL1        0.0719
     36 C          59.2300   94.0001    4.1618 C.ar    1  UNL1        0.0805
     37 N          60.0814   94.7053    3.1482 N.ar    1  UNL1       -0.3241
     38 C          60.0222   96.1654    2.8097 C.3     1  UNL1        0.1305
     39 C          61.0025   93.6942    2.5323 C.ar    1  UNL1        0.0577
     40 C          59.0288   91.4828    5.0383 C.2     1  UNL1        0.2476
     41 O          57.5419   91.4072    5.2206 O.2     1  UNL1       -0.2701
     42 N          59.9198   90.4883    5.7218 N.am    1  UNL1       -0.2969
     43 H          60.8958   90.5380    5.6021 H       1  UNL1        0.1501
     44 C          59.3239   89.4182    6.5876 C.3     1  UNL1        0.1167
     45 C          60.0442   88.9651    7.8228 C.ar    1  UNL1        0.0018
     46 C          60.1505   89.8796    9.0070 C.ar    1  UNL1        0.0182
     47 C          60.8708   89.4265   10.2423 C.ar    1  UNL1        0.1000
     48 N          61.4849   88.0589   10.2933 N.ar    1  UNL1       -0.2292
     49 C          61.3787   87.1444    9.1091 C.ar    1  UNL1        0.1315
     50 C          60.6584   87.5975    7.8738 C.ar    1  UNL1        0.0317
     51 N          61.9928   85.7768    9.1600 N.pl3   1  UNL1       -0.2897
     52 C          62.7551   85.3419   10.3765 C.3     1  UNL1        0.1136
     53 C          61.8446   84.8442    7.9946 C.3     1  UNL1        0.1136
     54 C          55.4575   96.0692   -1.9793 C.3     1  UNL1        0.1177
     55 C          54.0759   96.1969   -2.5494 C.ar    1  UNL1       -0.0025
     56 C          53.8794   96.2467   -4.0356 C.ar    1  UNL1       -0.0026
     57 C          52.4979   96.3744   -4.6056 C.ar    1  UNL1       -0.0003
     58 C          51.3128   96.4524   -3.6894 C.ar    1  UNL1       -0.0000
     59 C          51.5092   96.4027   -2.2031 C.ar    1  UNL1       -0.0003
     60 C          52.8908   96.2750   -1.6331 C.ar    1  UNL1       -0.0026
@<TRIPOS>BOND
     1    18    19    2
     2    19    17    1
     3    17     1    1
     4     1     2    1
     5     2     3    1
     6     3     4    2
     7     3     5   am
     8     5     6    1
     9     6    20    1
    10    20    21    1
    11    21    22   ar
    12    22    23   ar
    13    23    24   ar
    14    24    25    1
    15    24    26   ar
    16    26    27   ar
    17     6     7    1
    18     7     8    2
    19     7     9   am
    20     9    29    1
    21    29    30    1
    22    30    31   ar
    23    31    32   ar
    24    32    33   ar
    25    33    34   ar
    26    34    35   ar
    27    35    40    1
    28    40    41    2
    29    40    42   am
    30    42    44    1
    31    44    45    1
    32    45    46   ar
    33    46    47   ar
    34    47    48   ar
    35    48    49   ar
    36    49    51    1
    37    51    52    1
    38    51    53    1
    39    49    50   ar
    40    35    36   ar
    41    36    37   ar
    42    37    38    1
    43    37    39   ar
    44     9    10    1
    45    11    10    1
    46    11    12    1
    47    12    13   am
    48    13    14    2
    49    13    15   am
    50    15    54    1
    51    54    55    1
    52    55    56   ar
    53    56    57   ar
    54    57    58   ar
    55    58    59   ar
    56    59    60   ar
    57    12     1    1
    58    60    55   ar
    59    11     5    1
    60    27    21   ar
    61    39    30   ar
    62    39    34   ar
    63    50    45   ar
    64    25    28    1
    65    42    43    1
    66    15    16    1
