@<TRIPOS>MOLECULE
*****
 57 63 0 0 0
SMALL
GASTEIGER

@<TRIPOS>ATOM
      1 N          63.9044   86.2625   15.8697 N.3     1  UNL1       -0.1862
      2 C          64.0500   84.7956   16.1473 C.3     1  UNL1        0.1775
      3 C          63.8761   83.8014   15.0377 C.2     1  UNL1        0.2452
      4 O          64.0217   82.3345   15.3154 O.2     1  UNL1       -0.2732
      5 N          63.5568   84.2740   13.6504 N.am    1  UNL1       -0.2541
      6 C          63.3830   83.2798   12.5408 C.3     1  UNL1        0.1577
      7 C          63.0636   83.7524   11.1535 C.2     1  UNL1        0.2445
      8 O          62.8898   82.7582   10.0438 O.2     1  UNL1       -0.2731
      9 N          62.9181   85.2194   10.8758 N.am    1  UNL1       -0.2705
     10 C          63.0919   86.2136   11.9854 C.3     1  UNL1        0.1359
     11 C          63.4113   85.7409   13.3728 C.3     1  UNL1        0.1908
     12 N          63.5851   86.7351   14.4824 N.am    1  UNL1       -0.1863
     13 C          63.4396   88.2020   14.2047 C.2     1  UNL1        0.3191
     14 O          63.1202   88.6746   12.8174 O.2     1  UNL1       -0.2512
     15 N          63.6134   89.1962   15.3144 N.am    1  UNL1       -0.2836
     16 H          63.8230   88.8860   16.2249 H       1  UNL1        0.1513
     17 C          64.0783   87.2567   16.9793 C.3     1  UNL1        0.1188
     18 C          62.5843   86.7928   19.0536 C.2     1  UNL1       -0.0034
     19 C          62.9114   87.6229   17.8478 C.2     1  UNL1       -0.0071
     20 C          63.5285   81.8130   12.8184 C.3     1  UNL1        0.0556
     21 C          62.3393   81.0112   13.2578 C.ar    1  UNL1       -0.0198
     22 C          61.1089   81.7076   13.7588 C.ar    1  UNL1       -0.0011
     23 C          59.9197   80.9058   14.1982 C.ar    1  UNL1        0.0363
     24 C          59.9610   79.4077   14.1365 C.ar    1  UNL1        0.1337
     25 O          58.7718   78.6059   14.5759 O.3     1  UNL1       -0.5055
     26 C          61.1914   78.7112   13.6354 C.ar    1  UNL1        0.0363
     27 C          62.3806   79.5130   13.1961 C.ar    1  UNL1       -0.0011
     28 H          58.0032   79.0409   14.8889 H       1  UNL1        0.2922
     29 C          62.5987   85.6920    9.4885 C.3     1  UNL1        0.1217
     30 C          62.0084   87.0548    9.2777 C.ar    1  UNL1        0.0135
     31 C          62.4479   88.2035   10.1365 C.ar    1  UNL1       -0.0012
     32 C          61.8577   89.5662    9.9257 C.ar    1  UNL1       -0.0002
     33 C          60.8280   89.7803    8.8563 C.ar    1  UNL1        0.0016
     34 C          60.3885   88.6317    7.9975 C.ar    1  UNL1        0.0214
     35 C          59.3994   88.5397    6.8736 C.ar    1  UNL1        0.0721
     36 C          59.3784   87.1200    6.3897 C.ar    1  UNL1        0.0805
     37 N          60.3544   86.3347    7.2146 N.ar    1  UNL1       -0.3241
     38 C          60.6537   84.8719    7.0710 C.3     1  UNL1        0.1305
     39 C          60.9788   87.2689    8.2082 C.ar    1  UNL1        0.0577
     40 C          58.5759   89.6691    6.3291 C.2     1  UNL1        0.2505
     41 O          57.1406   89.8163    6.7391 O.2     1  UNL1       -0.2699
     42 N          59.1878   90.6513    5.3747 N.am    1  UNL1       -0.2759
     43 C          58.3644   91.7806    4.8302 C.3     1  UNL1        0.0951
     44 C          58.9763   92.7628    3.8758 C.3     1  UNL1        0.0375
     45 C          60.4117   92.6156    3.4658 C.3     1  UNL1        0.0610
     46 C          61.2351   91.4862    4.0103 C.3     1  UNL1        0.0375
     47 C          60.6232   90.5040    4.9648 C.3     1  UNL1        0.0951
     48 N          61.0236   93.5978    2.5114 N.3     1  UNL1       -0.2715
     49 C          62.3874   93.3405    1.9423 C.3     1  UNL1        0.0896
     50 C          60.2716   94.8372    2.1261 C.3     1  UNL1        0.0896
     51 C          63.4679   90.6631   15.0367 C.3     1  UNL1        0.1177
     52 C          64.5252   91.3874   14.2574 C.ar    1  UNL1       -0.0025
     53 C          64.3100   91.6916   12.8045 C.ar    1  UNL1       -0.0026
     54 C          65.3674   92.4159   12.0252 C.ar    1  UNL1       -0.0003
     55 C          66.6399   92.8361   12.6988 C.ar    1  UNL1       -0.0000
     56 C          66.8552   92.5320   14.1519 C.ar    1  UNL1       -0.0003
     57 C          65.7979   91.8077   14.9312 C.ar    1  UNL1       -0.0026
@<TRIPOS>BOND
     1    18    19    2
     2    19    17    1
     3    17     1    1
     4     1     2    1
     5     2     3    1
     6     3     4    2
     7     3     5   am
     8     5     6    1
     9     6    20    1
    10    20    21    1
    11    21    22   ar
    12    22    23   ar
    13    23    24   ar
    14    24    25    1
    15    24    26   ar
    16    26    27   ar
    17     6     7    1
    18     7     8    2
    19     7     9   am
    20     9    29    1
    21    29    30    1
    22    30    31   ar
    23    31    32   ar
    24    32    33   ar
    25    33    34   ar
    26    34    35   ar
    27    35    40    1
    28    40    41    2
    29    40    42   am
    30    42    43    1
    31    43    44    1
    32    44    45    1
    33    45    48    1
    34    48    49    1
    35    48    50    1
    36    45    46    1
    37    46    47    1
    38    35    36   ar
    39    36    37   ar
    40    37    38    1
    41    37    39   ar
    42     9    10    1
    43    11    10    1
    44    11    12    1
    45    12    13   am
    46    13    14    2
    47    13    15   am
    48    15    51    1
    49    51    52    1
    50    52    53   ar
    51    53    54   ar
    52    54    55   ar
    53    55    56   ar
    54    56    57   ar
    55    12     1    1
    56    57    52   ar
    57    11     5    1
    58    27    21   ar
    59    39    30   ar
    60    39    34   ar
    61    47    42    1
    62    25    28    1
    63    15    16    1
@<TRIPOS>MOLECULE
*****
 57 63 0 0 0
SMALL
GASTEIGER

@<TRIPOS>ATOM
      1 N          65.3731   89.3824   14.6477 N.3     1  UNL1       -0.1862
      2 C          65.5658   88.1390   15.4643 C.3     1  UNL1        0.1775
      3 C          64.8367   86.8805   15.0975 C.2     1  UNL1        0.2452
      4 O          65.0294   85.6370   15.9141 O.2     1  UNL1       -0.2732
      5 N          63.9150   86.8653   13.9143 N.am    1  UNL1       -0.2541
      6 C          63.1859   85.6068   13.5476 C.3     1  UNL1        0.1577
      7 C          62.2641   85.5916   12.3644 C.2     1  UNL1        0.2445
      8 O          61.5350   84.3331   11.9977 O.2     1  UNL1       -0.2731
      9 N          62.0714   86.8351   11.5478 N.am    1  UNL1       -0.2705
     10 C          62.8005   88.0936   11.9145 C.3     1  UNL1        0.1359
     11 C          63.7223   88.1087   13.0978 C.3     1  UNL1        0.1908
     12 N          64.4514   89.3673   13.4645 N.am    1  UNL1       -0.1863
     13 C          64.2586   90.6108   12.6479 C.2     1  UNL1        0.3191
     14 O          63.3369   90.5956   11.4647 O.2     1  UNL1       -0.2512
     15 N          64.9877   91.8693   13.0146 N.am    1  UNL1       -0.2836
     16 H          65.5927   91.8792   13.7913 H       1  UNL1        0.1513
     17 C          66.1022   90.6410   15.0145 C.3     1  UNL1        0.1188
     18 C          68.1213   92.2320   14.6380 C.2     1  UNL1       -0.0034
     19 C          67.4952   90.8749   14.5098 C.2     1  UNL1       -0.0071
     20 C          63.3786   84.3633   14.3641 C.3     1  UNL1        0.0556
     21 C          63.1715   83.0158   13.7386 C.ar    1  UNL1       -0.0198
     22 C          64.0193   82.5899   12.5768 C.ar    1  UNL1       -0.0011
     23 C          63.8123   81.2424   11.9514 C.ar    1  UNL1        0.0363
     24 C          62.7574   80.3206   12.4877 C.ar    1  UNL1        0.1337
     25 O          62.5504   78.9731   11.8623 O.3     1  UNL1       -0.5055
     26 C          61.9096   80.7465   13.6496 C.ar    1  UNL1        0.0363
     27 C          62.1166   82.0940   14.2750 C.ar    1  UNL1       -0.0011
     28 H          63.0800   78.7071   11.1365 H       1  UNL1        0.2922
     29 C          61.1496   86.8200   10.3646 C.3     1  UNL1        0.1217
     30 C          60.5501   88.1008    9.8644 C.ar    1  UNL1        0.0135
     31 C          60.3582   89.2555   10.8024 C.ar    1  UNL1       -0.0012
     32 C          59.7587   90.5363   10.3023 C.ar    1  UNL1       -0.0002
     33 C          59.3511   90.6624    8.8643 C.ar    1  UNL1        0.0016
     34 C          59.5430   89.5076    7.9263 C.ar    1  UNL1        0.0214
     35 C          59.2392   89.3386    6.4672 C.ar    1  UNL1        0.0721
     36 C          59.6511   87.9533    6.0655 C.ar    1  UNL1        0.0805
     37 N          60.2093   87.2662    7.2763 N.ar    1  UNL1       -0.3241
     38 C          60.7409   85.8646    7.3280 C.3     1  UNL1        0.1305
     39 C          60.1425   88.2268    8.4264 C.ar    1  UNL1        0.0577
     40 C          58.6305   90.3732    5.5676 C.2     1  UNL1        0.2505
     41 O          57.1510   90.6179    5.5995 O.2     1  UNL1       -0.2699
     42 N          59.5014   91.1632    4.6363 N.am    1  UNL1       -0.2759
     43 C          58.8929   92.1978    3.7367 C.3     1  UNL1        0.0951
     44 C          59.7638   92.9878    2.8054 C.3     1  UNL1        0.0375
     45 C          61.2433   92.7431    2.7735 C.3     1  UNL1        0.0610
     46 C          61.8519   91.7085    3.6731 C.3     1  UNL1        0.0375
     47 C          60.9810   90.9185    4.6044 C.3     1  UNL1        0.0951
     48 N          62.1142   93.5331    1.8421 N.3     1  UNL1       -0.2715
     49 C          63.5512   93.1476    1.6510 C.3     1  UNL1        0.0896
     50 C          61.5481   94.7085    1.1019 C.3     1  UNL1        0.0896
     51 C          64.7950   93.1127   12.1981 C.3     1  UNL1        0.1177
     52 C          65.8376   93.5245   11.2013 C.ar    1  UNL1       -0.0025
     53 C          66.7777   92.5027   10.6338 C.ar    1  UNL1       -0.0026
     54 C          67.8202   92.9144    9.6370 C.ar    1  UNL1       -0.0003
     55 C          67.9226   94.3480    9.2077 C.ar    1  UNL1       -0.0000
     56 C          66.9825   95.3699    9.7752 C.ar    1  UNL1       -0.0003
     57 C          65.9400   94.9581   10.7720 C.ar    1  UNL1       -0.0026
@<TRIPOS>BOND
     1    18    19    2
     2    19    17    1
     3    17     1    1
     4     1     2    1
     5     2     3    1
     6     3     4    2
     7     3     5   am
     8     5     6    1
     9     6    20    1
    10    20    21    1
    11    21    22   ar
    12    22    23   ar
    13    23    24   ar
    14    24    25    1
    15    24    26   ar
    16    26    27   ar
    17     6     7    1
    18     7     8    2
    19     7     9   am
    20     9    29    1
    21    29    30    1
    22    30    31   ar
    23    31    32   ar
    24    32    33   ar
    25    33    34   ar
    26    34    35   ar
    27    35    40    1
    28    40    41    2
    29    40    42   am
    30    42    43    1
    31    43    44    1
    32    44    45    1
    33    45    48    1
    34    48    49    1
    35    48    50    1
    36    45    46    1
    37    46    47    1
    38    35    36   ar
    39    36    37   ar
    40    37    38    1
    41    37    39   ar
    42     9    10    1
    43    11    10    1
    44    11    12    1
    45    12    13   am
    46    13    14    2
    47    13    15   am
    48    15    51    1
    49    51    52    1
    50    52    53   ar
    51    53    54   ar
    52    54    55   ar
    53    55    56   ar
    54    56    57   ar
    55    12     1    1
    56    57    52   ar
    57    11     5    1
    58    27    21   ar
    59    39    30   ar
    60    39    34   ar
    61    47    42    1
    62    25    28    1
    63    15    16    1
