@<TRIPOS>MOLECULE
*****
 43 48 0 0 0
SMALL
GASTEIGER

@<TRIPOS>ATOM
      1 N          62.3180   85.8737   10.7657 N.am    1  UNL1       -0.1909
      2 C          62.4751   87.1326   11.5661 C.2     1  UNL1        0.3173
      3 O          63.2687   87.2805   12.8302 O.2     1  UNL1       -0.2516
      4 N          61.6992   88.2178   10.8802 N.am    1  UNL1       -0.2544
      5 C          61.0625   87.6295    9.6559 C.3     1  UNL1        0.1341
      6 C          60.4931   86.9053    8.4722 C.3     1  UNL1        0.0446
      7 C          59.6262   87.6372    7.4911 C.3     1  UNL1        0.0745
      8 N          59.3288   89.0934    7.6935 N.3     1  UNL1       -0.2688
      9 C          59.8983   89.8177    8.8772 C.3     1  UNL1        0.0745
     10 C          60.7651   89.0858    9.8584 C.3     1  UNL1        0.0446
     11 C          61.4450   86.1808    9.5852 C.2     1  UNL1        0.2525
     12 O          61.0277   85.2097    8.5208 O.2     1  UNL1       -0.2724
     13 C          63.2484   82.5535   12.7305 C.ar    1  UNL1        0.1400
     14 C          64.1450   81.8774   11.7360 C.ar    1  UNL1        0.0370
     15 C          64.4325   82.5334   10.4181 C.ar    1  UNL1        0.0044
     16 C          63.8235   83.8655   10.0947 C.ar    1  UNL1        0.0156
     17 C          62.9270   84.5416   11.0891 C.ar    1  UNL1        0.0652
     18 C          62.6394   83.8856   12.4071 C.ar    1  UNL1        0.0522
     19 C          61.6617   81.1781   14.2605 C.3     1  UNL1        0.2525
     20 O          62.9608   81.8975   14.0484 O.3     1  UNL1       -0.4714
     21 C          61.5807   89.6412   11.3380 C.3     1  UNL1        0.1243
     22 C          62.8113   90.4149   11.7083 C.ar    1  UNL1        0.0252
     23 C          63.3722   90.3129   13.0957 C.ar    1  UNL1       -0.0004
     24 C          64.6028   91.0865   13.4660 C.ar    1  UNL1       -0.0001
     25 C          65.2725   91.9623   12.4488 C.ar    1  UNL1        0.0023
     26 C          64.7116   92.0643   11.0614 C.ar    1  UNL1        0.0294
     27 C          63.4810   91.2907   10.6911 C.ar    1  UNL1        0.1377
     28 F          62.9201   91.3928    9.3037 F       1  UNL1       -0.2044
     29 C          58.4619   89.8254    6.7123 C.3     1  UNL1        0.0991
     30 C          59.0884   90.6621    5.6364 C.ar    1  UNL1       -0.0061
     31 C          60.5508   90.5223    5.3335 C.ar    1  UNL1       -0.0029
     32 C          61.1772   91.3590    4.2576 C.ar    1  UNL1       -0.0003
     33 C          60.3412   92.3355    3.4847 C.ar    1  UNL1        0.0000
     34 C          58.8788   92.4753    3.7876 C.ar    1  UNL1       -0.0003
     35 C          58.2523   91.6386    4.8634 C.ar    1  UNL1       -0.0029
     36 C          60.9677   93.1722    2.4088 C.ar    1  UNL1        0.0007
     37 C          60.1199   94.1030    1.5934 C.ar    1  UNL1        0.0000
     38 C          60.7464   94.9397    0.5175 C.ar    1  UNL1        0.0007
     39 C          62.2206   94.8456    0.2571 C.ar    1  UNL1        0.0103
     40 C          63.0684   93.9148    1.0725 C.ar    1  UNL1        0.0684
     41 C          62.4419   93.0781    2.1483 C.ar    1  UNL1        0.0103
     42 C          64.5425   93.8206    0.8121 C.1     1  UNL1        0.1004
     43 N          66.0168   93.7264    0.5516 N.1     1  UNL1       -0.1908
@<TRIPOS>BOND
     1    19    20    1
     2    20    13    1
     3    13    14   ar
     4    14    15   ar
     5    15    16   ar
     6    16    17   ar
     7    17     1    1
     8     1     2   am
     9     2     3    2
    10     2     4   am
    11     4    21    1
    12    21    22    1
    13    22    23   ar
    14    23    24   ar
    15    24    25   ar
    16    25    26   ar
    17    26    27   ar
    18    27    28    1
    19     4     5    1
    20     5     6    1
    21     6     7    1
    22     7     8    1
    23     8    29    1
    24    29    30    1
    25    30    31   ar
    26    31    32   ar
    27    32    33   ar
    28    33    36    1
    29    36    37   ar
    30    37    38   ar
    31    38    39   ar
    32    39    40   ar
    33    40    42    1
    34    42    43    3
    35    40    41   ar
    36    33    34   ar
    37    34    35   ar
    38     8     9    1
    39     9    10    1
    40     5    11    1
    41    11    12    2
    42    17    18   ar
    43    18    13   ar
    44    11     1   am
    45    27    22   ar
    46    10     5    1
    47    35    30   ar
    48    41    36   ar
@<TRIPOS>MOLECULE
*****
 43 48 0 0 0
SMALL
GASTEIGER

@<TRIPOS>ATOM
      1 N          62.5125   86.3335   11.6222 N.am    1  UNL1       -0.1909
      2 C          62.7352   87.7255   12.1351 C.2     1  UNL1        0.3173
      3 O          63.5701   88.1046   13.3221 O.2     1  UNL1       -0.2516
      4 N          61.9765   88.6716   11.2524 N.am    1  UNL1       -0.2544
      5 C          61.2848   87.8645   10.1940 C.3     1  UNL1        0.1341
      6 C          60.6569   86.9304    9.2025 C.3     1  UNL1        0.0446
      7 C          59.7868   87.4730    8.1078 C.3     1  UNL1        0.0745
      8 N          59.5446   88.9497    8.0045 N.3     1  UNL1       -0.2688
      9 C          60.1726   89.8838    8.9960 C.3     1  UNL1        0.0745
     10 C          61.0427   89.3412   10.0907 C.3     1  UNL1        0.0446
     11 C          61.6161   86.4195   10.4225 C.2     1  UNL1        0.2525
     12 O          61.1353   85.2634    9.5965 O.2     1  UNL1       -0.2724
     13 C          63.2590   82.4843   12.2355 C.ar    1  UNL1        0.1400
     14 C          64.2315   82.5622   13.3749 C.ar    1  UNL1        0.0370
     15 C          64.6310   83.8972   13.9300 C.ar    1  UNL1        0.0044
     16 C          64.0580   85.1543   13.3458 C.ar    1  UNL1        0.0156
     17 C          63.0855   85.0764   12.2065 C.ar    1  UNL1        0.0652
     18 C          62.6860   83.7414   11.6513 C.ar    1  UNL1        0.0522
     19 C          63.2364   80.7774   10.2769 C.3     1  UNL1        0.2525
     20 O          62.8594   81.1494   11.6804 O.3     1  UNL1       -0.4714
     21 C          61.9195   90.1630   11.4018 C.3     1  UNL1        0.1243
     22 C          63.1785   90.9411   11.6461 C.ar    1  UNL1        0.0252
     23 C          63.7428   91.0384   13.0325 C.ar    1  UNL1       -0.0004
     24 C          65.0018   91.8164   13.2769 C.ar    1  UNL1       -0.0001
     25 C          65.6964   92.4970   12.1349 C.ar    1  UNL1        0.0023
     26 C          65.1321   92.3997   10.7485 C.ar    1  UNL1        0.0294
     27 C          63.8732   91.6217   10.5041 C.ar    1  UNL1        0.1377
     28 F          63.3089   91.5243    9.1177 F       1  UNL1       -0.2044
     29 C          58.6744   89.4923    6.9098 C.3     1  UNL1        0.0991
     30 C          59.2643   90.3768    5.8516 C.ar    1  UNL1       -0.0061
     31 C          58.4220   91.4354    5.2037 C.ar    1  UNL1       -0.0029
     32 C          59.0120   92.3199    4.1456 C.ar    1  UNL1       -0.0003
     33 C          60.4442   92.1458    3.7353 C.ar    1  UNL1        0.0000
     34 C          61.2866   91.0872    4.3832 C.ar    1  UNL1       -0.0003
     35 C          60.6967   90.2027    5.4414 C.ar    1  UNL1       -0.0029
     36 C          61.0341   93.0303    2.6772 C.ar    1  UNL1        0.0007
     37 C          62.5231   93.1208    2.5198 C.ar    1  UNL1        0.0000
     38 C          63.1130   94.0053    1.4616 C.ar    1  UNL1        0.0007
     39 C          62.2139   94.7993    0.5609 C.ar    1  UNL1        0.0103
     40 C          60.7249   94.7088    0.7184 C.ar    1  UNL1        0.0684
     41 C          60.1350   93.8243    1.7765 C.ar    1  UNL1        0.0103
     42 C          59.8259   95.5028   -0.1823 C.1     1  UNL1        0.1004
     43 N          58.9267   96.2968   -1.0830 N.1     1  UNL1       -0.1908
@<TRIPOS>BOND
     1    19    20    1
     2    20    13    1
     3    13    14   ar
     4    14    15   ar
     5    15    16   ar
     6    16    17   ar
     7    17     1    1
     8     1     2   am
     9     2     3    2
    10     2     4   am
    11     4    21    1
    12    21    22    1
    13    22    23   ar
    14    23    24   ar
    15    24    25   ar
    16    25    26   ar
    17    26    27   ar
    18    27    28    1
    19     4     5    1
    20     5     6    1
    21     6     7    1
    22     7     8    1
    23     8    29    1
    24    29    30    1
    25    30    31   ar
    26    31    32   ar
    27    32    33   ar
    28    33    36    1
    29    36    37   ar
    30    37    38   ar
    31    38    39   ar
    32    39    40   ar
    33    40    42    1
    34    42    43    3
    35    40    41   ar
    36    33    34   ar
    37    34    35   ar
    38     8     9    1
    39     9    10    1
    40     5    11    1
    41    11    12    2
    42    17    18   ar
    43    18    13   ar
    44    11     1   am
    45    27    22   ar
    46    10     5    1
    47    35    30   ar
    48    41    36   ar
