@<TRIPOS>MOLECULE
*****
 28 32 0 0 0
SMALL
GASTEIGER

@<TRIPOS>ATOM
      1 C          63.1580   89.1349   12.5554 C.2     1  UNL1        0.0651
      2 C          63.5694   87.7120   12.7919 C.2     1  UNL1        0.0608
      3 C          62.7712   86.5912   12.1947 C.2     1  UNL1        0.1964
      4 N          61.5616   86.8933   11.3608 N.2     1  UNL1       -0.0377
      5 C          61.1501   88.3162   11.1241 C.2     1  UNL1        0.3607
      6 N          60.0132   88.9171   10.3518 N.2     1  UNL1       -0.0343
      7 C          60.1088   90.4092   10.4717 C.2     1  UNL1        0.2321
      8 C          61.3047   90.7306   11.3182 C.2     1  UNL1        0.0423
      9 C          61.9482   89.4370   11.7214 C.3     1  UNL1        0.1762
     10 C          65.5913   92.2639   16.0437 C.3     1  UNL1        0.1352
     11 N          65.0746   91.6939   14.7560 N.ar    1  UNL1       -0.2762
     12 C          64.2477   90.4509   14.6110 C.ar    1  UNL1        0.3353
     13 O          63.7923   89.5595   15.7282 O.2     1  UNL1       -0.2459
     14 N          63.9562   90.2557   13.1526 N.ar    1  UNL1       -0.2615
     15 C          64.6029   91.3781   12.3963 C.ar    1  UNL1        0.0868
     16 C          64.6517   91.7055   10.9334 C.ar    1  UNL1        0.0398
     17 C          65.3917   92.9219   10.4614 C.ar    1  UNL1        0.1005
     18 N          66.0830   93.8107   11.4523 N.ar    1  UNL1       -0.2407
     19 C          66.0342   93.4833   12.9153 C.ar    1  UNL1        0.1176
     20 C          65.2942   92.2670   13.3873 C.ar    1  UNL1        0.0993
     21 C          63.1827   85.1683   12.4313 C.ar    1  UNL1        0.0713
     22 C          63.1712   84.1859   11.2979 C.ar    1  UNL1        0.0173
     23 C          63.5827   82.7630   11.5345 C.ar    1  UNL1        0.0579
     24 CL         63.5712   81.7805   10.4011 Cl      1  UNL1       -0.0822
     25 C          64.0058   82.3224   12.9045 C.ar    1  UNL1        0.0137
     26 C          64.0173   83.3049   14.0379 C.ar    1  UNL1        0.0306
     27 C          63.6058   84.7278   13.8013 C.ar    1  UNL1        0.1437
     28 F          63.6174   85.7102   14.9348 F       1  UNL1       -0.2040
@<TRIPOS>BOND
     1    10    11    1
     2    11    12   ar
     3    12    13    2
     4    12    14   ar
     5    14     1    1
     6     1     2    2
     7     2     3    1
     8     3    21    1
     9    21    22   ar
    10    22    23   ar
    11    23    24    1
    12    23    25   ar
    13    25    26   ar
    14    26    27   ar
    15    27    28    1
    16     3     4    2
    17     4     5    1
    18     5     6    2
    19     6     7    1
    20     7     8    2
    21     8     9    1
    22    14    15   ar
    23    15    16   ar
    24    16    17   ar
    25    17    18   ar
    26    18    19   ar
    27    19    20   ar
    28    20    11   ar
    29     9     1    1
    30    20    15   ar
    31    27    21   ar
    32     9     5    1
@<TRIPOS>MOLECULE
*****
 28 32 0 0 0
SMALL
GASTEIGER

@<TRIPOS>ATOM
      1 C          62.5782   86.9189   11.6342 C.2     1  UNL1        0.0651
      2 C          63.4118   87.8950   12.4101 C.2     1  UNL1        0.0608
      3 C          63.1552   89.3675   12.2833 C.2     1  UNL1        0.1964
      4 N          62.0650   89.8638   11.3806 N.2     1  UNL1       -0.0377
      5 C          61.2313   88.8877   10.6046 C.2     1  UNL1        0.3607
      6 N          60.0956   89.0792    9.6437 N.2     1  UNL1       -0.0343
      7 C          59.6503   87.7251    9.1766 C.2     1  UNL1        0.2321
      8 C          60.5108   86.6967    9.8488 C.2     1  UNL1        0.0423
      9 C          61.4879   87.4152   10.7314 C.3     1  UNL1        0.1762
     10 C          63.5991   81.8781   10.4390 C.3     1  UNL1        0.1352
     11 N          63.3040   83.1295   11.2116 N.ar    1  UNL1       -0.2762
     12 C          63.1060   84.4982   10.6309 C.ar    1  UNL1        0.3353
     13 O          63.1682   84.8559    9.1755 O.2     1  UNL1       -0.2459
     14 N          62.8348   85.4464   11.7610 N.ar    1  UNL1       -0.2615
     15 C          62.8653   84.6638   13.0403 C.ar    1  UNL1        0.0868
     16 C          62.6664   85.0700   14.4704 C.ar    1  UNL1        0.0398
     17 C          62.7575   84.0442   15.5610 C.ar    1  UNL1        0.1005
     18 N          63.0475   82.6123   15.2215 N.ar    1  UNL1       -0.2407
     19 C          63.2464   82.2060   13.7914 C.ar    1  UNL1        0.1176
     20 C          63.1553   83.2318   12.7007 C.ar    1  UNL1        0.0993
     21 C          63.9889   90.3436   13.0593 C.ar    1  UNL1        0.0713
     22 C          64.6442   91.4953   12.3563 C.ar    1  UNL1        0.0173
     23 C          65.4778   92.4715   13.1323 C.ar    1  UNL1        0.0579
     24 CL         66.1331   93.6232   12.4293 Cl      1  UNL1       -0.0822
     25 C          65.6563   92.2960   14.6112 C.ar    1  UNL1        0.0137
     26 C          65.0010   91.1443   15.3142 C.ar    1  UNL1        0.0306
     27 C          64.1673   90.1681   14.5382 C.ar    1  UNL1        0.1437
     28 F          63.5121   89.0164   15.2413 F       1  UNL1       -0.2040
@<TRIPOS>BOND
     1    10    11    1
     2    11    12   ar
     3    12    13    2
     4    12    14   ar
     5    14     1    1
     6     1     2    2
     7     2     3    1
     8     3    21    1
     9    21    22   ar
    10    22    23   ar
    11    23    24    1
    12    23    25   ar
    13    25    26   ar
    14    26    27   ar
    15    27    28    1
    16     3     4    2
    17     4     5    1
    18     5     6    2
    19     6     7    1
    20     7     8    2
    21     8     9    1
    22    14    15   ar
    23    15    16   ar
    24    16    17   ar
    25    17    18   ar
    26    18    19   ar
    27    19    20   ar
    28    20    11   ar
    29     9     1    1
    30    20    15   ar
    31    27    21   ar
    32     9     5    1
@<TRIPOS>MOLECULE
*****
 28 32 0 0 0
SMALL
GASTEIGER

@<TRIPOS>ATOM
      1 C          63.9098   90.3039   12.5732 C.2     1  UNL1        0.0651
      2 C          64.6297   91.1731   11.5853 C.2     1  UNL1        0.0608
      3 C          65.3787   92.3839   12.0577 C.2     1  UNL1        0.1964
      4 N          65.4079   92.7253   13.5180 N.2     1  UNL1       -0.0377
      5 C          64.6880   91.8561   14.5060 C.2     1  UNL1        0.3607
      6 N          64.5401   91.9404   15.9963 N.2     1  UNL1       -0.0343
      7 C          63.6997   90.7817   16.4449 C.2     1  UNL1        0.2321
      8 C          63.3282   89.9813   15.2320 C.2     1  UNL1        0.0423
      9 C          63.9389   90.6453   14.0336 C.3     1  UNL1        0.1762
     10 C          62.1948   85.3339   12.0845 C.3     1  UNL1        0.1352
     11 N          62.3725   86.8087   11.8762 N.ar    1  UNL1       -0.2762
     12 C          63.3100   87.6998   12.6359 C.ar    1  UNL1        0.3353
     13 O          64.2344   87.2725   13.7372 O.2     1  UNL1       -0.2459
     14 N          63.1608   89.0931   12.1009 N.ar    1  UNL1       -0.2615
     15 C          62.1311   89.0632   11.0105 C.ar    1  UNL1        0.0868
     16 C          61.5741   90.1392   10.1262 C.ar    1  UNL1        0.0398
     17 C          60.5300   89.8033    9.1031 C.ar    1  UNL1        0.1005
     18 N          60.0428   88.3915    8.9643 N.ar    1  UNL1       -0.2407
     19 C          60.5997   87.3155    9.8486 C.ar    1  UNL1        0.1176
     20 C          61.6439   87.6514   10.8717 C.ar    1  UNL1        0.0993
     21 C          66.0986   93.2531   11.0697 C.ar    1  UNL1        0.0713
     22 C          65.5687   94.6187   10.7463 C.ar    1  UNL1        0.0173
     23 C          66.2886   95.4879    9.7583 C.ar    1  UNL1        0.0579
     24 CL         65.7587   96.8534    9.4350 Cl      1  UNL1       -0.0822
     25 C          67.5384   94.9918    9.0937 C.ar    1  UNL1        0.0137
     26 C          68.0683   93.6263    9.4171 C.ar    1  UNL1        0.0306
     27 C          67.3484   92.7570   10.4051 C.ar    1  UNL1        0.1437
     28 F          67.8784   91.3915   10.7284 F       1  UNL1       -0.2040
@<TRIPOS>BOND
     1    10    11    1
     2    11    12   ar
     3    12    13    2
     4    12    14   ar
     5    14     1    1
     6     1     2    2
     7     2     3    1
     8     3    21    1
     9    21    22   ar
    10    22    23   ar
    11    23    24    1
    12    23    25   ar
    13    25    26   ar
    14    26    27   ar
    15    27    28    1
    16     3     4    2
    17     4     5    1
    18     5     6    2
    19     6     7    1
    20     7     8    2
    21     8     9    1
    22    14    15   ar
    23    15    16   ar
    24    16    17   ar
    25    17    18   ar
    26    18    19   ar
    27    19    20   ar
    28    20    11   ar
    29     9     1    1
    30    20    15   ar
    31    27    21   ar
    32     9     5    1
@<TRIPOS>MOLECULE
*****
 28 32 0 0 0
SMALL
GASTEIGER

@<TRIPOS>ATOM
      1 C          63.8642   90.4248   12.4016 C.2     1  UNL1        0.0651
      2 C          64.6191   91.2740   11.4223 C.2     1  UNL1        0.0608
      3 C          65.4476   92.4252   11.9104 C.2     1  UNL1        0.1964
      4 N          65.5213   92.7273   13.3778 N.2     1  UNL1       -0.0377
      5 C          64.7664   91.8782   14.3571 C.2     1  UNL1        0.3607
      6 N          64.6484   91.9336   15.8514 N.2     1  UNL1       -0.0343
      7 C          63.7469   90.8166   16.2869 C.2     1  UNL1        0.2321
      8 C          63.3077   90.0708   15.0617 C.2     1  UNL1        0.0423
      9 C          63.9379   90.7270   13.8691 C.3     1  UNL1        0.1762
     10 C          60.3259   87.5638    9.7229 C.3     1  UNL1        0.1352
     11 N          61.4093   87.9585   10.6823 N.ar    1  UNL1       -0.2762
     12 C          61.9801   89.3356   10.8496 C.ar    1  UNL1        0.3353
     13 O          61.5678   90.5596   10.0869 O.2     1  UNL1       -0.2459
     14 N          63.0357   89.2736   11.9135 N.ar    1  UNL1       -0.2615
     15 C          63.1173   87.8583   12.4037 C.ar    1  UNL1        0.0868
     16 C          63.9769   87.2047   13.4447 C.ar    1  UNL1        0.0398
     17 C          63.8315   85.7383   13.7247 C.ar    1  UNL1        0.1005
     18 N          62.8263   84.9255   12.9638 N.ar    1  UNL1       -0.2407
     19 C          61.9666   85.5791   11.9228 C.ar    1  UNL1        0.1176
     20 C          62.1121   87.0456   11.6428 C.ar    1  UNL1        0.0993
     21 C          66.2025   93.2743   10.9310 C.ar    1  UNL1        0.0713
     22 C          65.6948   94.6402   10.5752 C.ar    1  UNL1        0.0173
     23 C          66.4497   95.4893    9.5959 C.ar    1  UNL1        0.0579
     24 CL         65.9421   96.8552    9.2401 Cl      1  UNL1       -0.0822
     25 C          67.7123   94.9726    8.9723 C.ar    1  UNL1        0.0137
     26 C          68.2200   93.6067    9.3281 C.ar    1  UNL1        0.0306
     27 C          67.4651   92.7576   10.3075 C.ar    1  UNL1        0.1437
     28 F          67.9729   91.3917   10.6632 F       1  UNL1       -0.2040
@<TRIPOS>BOND
     1    10    11    1
     2    11    12   ar
     3    12    13    2
     4    12    14   ar
     5    14     1    1
     6     1     2    2
     7     2     3    1
     8     3    21    1
     9    21    22   ar
    10    22    23   ar
    11    23    24    1
    12    23    25   ar
    13    25    26   ar
    14    26    27   ar
    15    27    28    1
    16     3     4    2
    17     4     5    1
    18     5     6    2
    19     6     7    1
    20     7     8    2
    21     8     9    1
    22    14    15   ar
    23    15    16   ar
    24    16    17   ar
    25    17    18   ar
    26    18    19   ar
    27    19    20   ar
    28    20    11   ar
    29     9     1    1
    30    20    15   ar
    31    27    21   ar
    32     9     5    1
@<TRIPOS>MOLECULE
*****
 28 32 0 0 0
SMALL
GASTEIGER

@<TRIPOS>ATOM
      1 C          63.6973   88.9838   13.2529 C.2     1  UNL1        0.0651
      2 C          62.8308   89.1498   12.0399 C.2     1  UNL1        0.0608
      3 C          62.2565   87.9437   11.3576 C.2     1  UNL1        0.1964
      4 N          62.5489   86.5715   11.8882 N.2     1  UNL1       -0.0377
      5 C          63.4154   86.4055   13.1013 C.2     1  UNL1        0.3607
      6 N          63.8743   85.1881   13.8479 N.2     1  UNL1       -0.0343
      7 C          64.7321   85.6419   14.9917 C.2     1  UNL1        0.2321
      8 C          64.8034   87.1397   14.9520 C.2     1  UNL1        0.0423
      9 C          63.9896   87.6116   13.7837 C.3     1  UNL1        0.1762
     10 C          64.9856   92.5215   16.9551 C.3     1  UNL1        0.1352
     11 N          64.8636   91.8160   15.6370 N.ar    1  UNL1       -0.2762
     12 C          64.1374   90.5268   15.3908 C.ar    1  UNL1        0.3353
     13 O          63.4055   89.7168   16.4195 O.2     1  UNL1       -0.2459
     14 N          64.2715   90.1899   13.9353 N.ar    1  UNL1       -0.2615
     15 C          65.0807   91.2708   13.2819 C.ar    1  UNL1        0.0868
     16 C          65.5315   91.4698   11.8652 C.ar    1  UNL1        0.0398
     17 C          66.3483   92.6737   11.5002 C.ar    1  UNL1        0.1005
     18 N          66.7143   93.6787   12.5519 N.ar    1  UNL1       -0.2407
     19 C          66.2634   93.4797   13.9686 C.ar    1  UNL1        0.1176
     20 C          65.4466   92.2758   14.3336 C.ar    1  UNL1        0.0993
     21 C          61.3900   88.1098   10.1445 C.ar    1  UNL1        0.0713
     22 C          60.9790   86.9083    9.3462 C.ar    1  UNL1        0.0173
     23 C          60.1125   87.0743    8.1331 C.ar    1  UNL1        0.0579
     24 CL         59.7014   85.8728    7.3348 Cl      1  UNL1       -0.0822
     25 C          59.6569   88.4419    7.7183 C.ar    1  UNL1        0.0137
     26 C          60.0679   89.6435    8.5166 C.ar    1  UNL1        0.0306
     27 C          60.9345   89.4774    9.7297 C.ar    1  UNL1        0.1437
     28 F          61.3454   90.6791   10.5280 F       1  UNL1       -0.2040
@<TRIPOS>BOND
     1    10    11    1
     2    11    12   ar
     3    12    13    2
     4    12    14   ar
     5    14     1    1
     6     1     2    2
     7     2     3    1
     8     3    21    1
     9    21    22   ar
    10    22    23   ar
    11    23    24    1
    12    23    25   ar
    13    25    26   ar
    14    26    27   ar
    15    27    28    1
    16     3     4    2
    17     4     5    1
    18     5     6    2
    19     6     7    1
    20     7     8    2
    21     8     9    1
    22    14    15   ar
    23    15    16   ar
    24    16    17   ar
    25    17    18   ar
    26    18    19   ar
    27    19    20   ar
    28    20    11   ar
    29     9     1    1
    30    20    15   ar
    31    27    21   ar
    32     9     5    1
@<TRIPOS>MOLECULE
*****
 28 32 0 0 0
SMALL
GASTEIGER

@<TRIPOS>ATOM
      1 C          62.9879   87.2853   12.4485 C.2     1  UNL1        0.0651
      2 C          63.8398   88.3658   13.0454 C.2     1  UNL1        0.0608
      3 C          63.5964   89.8003   12.6809 C.2     1  UNL1        0.1964
      4 N          62.5008   90.1543   11.7194 N.2     1  UNL1       -0.0377
      5 C          61.6488   89.0738   11.1224 C.2     1  UNL1        0.3607
      6 N          60.5041   89.1181   10.1540 N.2     1  UNL1       -0.0343
      7 C          60.0402   87.7109    9.9200 C.2     1  UNL1        0.2321
      8 C          60.8981   86.7969   10.7438 C.2     1  UNL1        0.0423
      9 C          61.8923   87.6392   11.4869 C.3     1  UNL1        0.1762
     10 C          63.7611   82.8777   15.2513 C.3     1  UNL1        0.1352
     11 N          63.5868   83.8248   14.1012 N.ar    1  UNL1       -0.2762
     12 C          63.3433   85.3013   14.2042 C.ar    1  UNL1        0.3353
     13 O          63.2315   86.0900   15.4753 O.2     1  UNL1       -0.2459
     14 N          63.2314   85.8507   12.8130 N.ar    1  UNL1       -0.2615
     15 C          63.4056   84.7138   11.8501 C.ar    1  UNL1        0.0868
     16 C          63.3926   84.6569   10.3513 C.ar    1  UNL1        0.0398
     17 C          63.5993   83.3479    9.6487 C.ar    1  UNL1        0.1005
     18 N          63.8190   82.0958   10.4449 N.ar    1  UNL1       -0.2407
     19 C          63.8320   82.1527   11.9438 C.ar    1  UNL1        0.1176
     20 C          63.6253   83.4617   12.6464 C.ar    1  UNL1        0.0993
     21 C          64.4484   90.8809   13.2778 C.ar    1  UNL1        0.0713
     22 C          65.0101   91.9623   12.4032 C.ar    1  UNL1        0.0173
     23 C          65.8622   93.0429   13.0002 C.ar    1  UNL1        0.0579
     24 CL         66.4239   94.1243   12.1256 Cl      1  UNL1       -0.0822
     25 C          66.1526   93.0421   14.4718 C.ar    1  UNL1        0.0137
     26 C          65.5909   91.9606   15.3464 C.ar    1  UNL1        0.0306
     27 C          64.7388   90.8801   14.7494 C.ar    1  UNL1        0.1437
     28 F          64.1771   89.7986   15.6242 F       1  UNL1       -0.2040
@<TRIPOS>BOND
     1    10    11    1
     2    11    12   ar
     3    12    13    2
     4    12    14   ar
     5    14     1    1
     6     1     2    2
     7     2     3    1
     8     3    21    1
     9    21    22   ar
    10    22    23   ar
    11    23    24    1
    12    23    25   ar
    13    25    26   ar
    14    26    27   ar
    15    27    28    1
    16     3     4    2
    17     4     5    1
    18     5     6    2
    19     6     7    1
    20     7     8    2
    21     8     9    1
    22    14    15   ar
    23    15    16   ar
    24    16    17   ar
    25    17    18   ar
    26    18    19   ar
    27    19    20   ar
    28    20    11   ar
    29     9     1    1
    30    20    15   ar
    31    27    21   ar
    32     9     5    1
@<TRIPOS>MOLECULE
*****
 28 32 0 0 0
SMALL
GASTEIGER

@<TRIPOS>ATOM
      1 C          62.5377   86.8704   11.8145 C.2     1  UNL1        0.0651
      2 C          62.9575   88.1892   12.3926 C.2     1  UNL1        0.0608
      3 C          63.7954   88.2305   13.6361 C.2     1  UNL1        0.1964
      4 N          64.2135   86.9528   14.3015 N.2     1  UNL1       -0.0377
      5 C          63.7937   85.6339   13.7234 C.2     1  UNL1        0.3607
      6 N          64.0516   84.2209   14.1556 N.2     1  UNL1       -0.0343
      7 C          63.3731   83.3063   13.1792 C.2     1  UNL1        0.2321
      8 C          62.6959   84.1542   12.1435 C.2     1  UNL1        0.0423
      9 C          62.9558   85.5927   12.4799 C.3     1  UNL1        0.1762
     10 C          58.6568   87.7457    8.3427 C.3     1  UNL1        0.1352
     11 N          59.9160   87.2315    8.9752 N.ar    1  UNL1       -0.2762
     12 C          60.4072   87.5586   10.3543 C.ar    1  UNL1        0.3353
     13 O          59.7254   88.4574   11.3429 O.2     1  UNL1       -0.2459
     14 N          61.6998   86.8292   10.5710 N.ar    1  UNL1       -0.2615
     15 C          62.0075   86.0512    9.3260 C.ar    1  UNL1        0.0868
     16 C          63.1491   85.1485    8.9629 C.ar    1  UNL1        0.0398
     17 C          63.1882   84.4945    7.6136 C.ar    1  UNL1        0.1005
     18 N          62.0857   84.7431    6.6274 N.ar    1  UNL1       -0.2407
     19 C          60.9441   85.6458    6.9904 C.ar    1  UNL1        0.1176
     20 C          60.9050   86.2998    8.3397 C.ar    1  UNL1        0.0993
     21 C          64.2152   89.5494   14.2142 C.ar    1  UNL1        0.0713
     22 C          65.0916   90.4717   13.4196 C.ar    1  UNL1        0.0173
     23 C          65.5114   91.7906   13.9977 C.ar    1  UNL1        0.0579
     24 CL         66.3877   92.7129   13.2031 Cl      1  UNL1       -0.0822
     25 C          65.0549   92.1873   15.3703 C.ar    1  UNL1        0.0137
     26 C          64.1786   91.2650   16.1649 C.ar    1  UNL1        0.0306
     27 C          63.7588   89.9461   15.5868 C.ar    1  UNL1        0.1437
     28 F          62.8824   89.0238   16.3815 F       1  UNL1       -0.2040
@<TRIPOS>BOND
     1    10    11    1
     2    11    12   ar
     3    12    13    2
     4    12    14   ar
     5    14     1    1
     6     1     2    2
     7     2     3    1
     8     3    21    1
     9    21    22   ar
    10    22    23   ar
    11    23    24    1
    12    23    25   ar
    13    25    26   ar
    14    26    27   ar
    15    27    28    1
    16     3     4    2
    17     4     5    1
    18     5     6    2
    19     6     7    1
    20     7     8    2
    21     8     9    1
    22    14    15   ar
    23    15    16   ar
    24    16    17   ar
    25    17    18   ar
    26    18    19   ar
    27    19    20   ar
    28    20    11   ar
    29     9     1    1
    30    20    15   ar
    31    27    21   ar
    32     9     5    1
@<TRIPOS>MOLECULE
*****
 28 32 0 0 0
SMALL
GASTEIGER

@<TRIPOS>ATOM
      1 C          62.9976   86.5282   12.1314 C.2     1  UNL1        0.0651
      2 C          63.3209   87.8656   12.7285 C.2     1  UNL1        0.0608
      3 C          63.8747   87.9518   14.1199 C.2     1  UNL1        0.1964
      4 N          64.1052   86.7004   14.9142 N.2     1  UNL1       -0.0377
      5 C          63.7820   85.3629   14.3171 C.2     1  UNL1        0.3607
      6 N          63.9022   83.9679   14.8553 N.2     1  UNL1       -0.0343
      7 C          63.4227   83.0197   13.7965 C.2     1  UNL1        0.2321
      8 C          63.0061   83.8286   12.6040 C.2     1  UNL1        0.0423
      9 C          63.2282   85.2767   12.9257 C.3     1  UNL1        0.1762
     10 C          62.0201   84.8894    7.2081 C.3     1  UNL1        0.1352
     11 N          61.9945   85.6887    8.4770 N.ar    1  UNL1       -0.2762
     12 C          62.7702   85.3870    9.7249 C.ar    1  UNL1        0.3353
     13 O          63.7077   84.2329    9.9230 O.2     1  UNL1       -0.2459
     14 N          62.4438   86.4420   10.7400 N.ar    1  UNL1       -0.2615
     15 C          61.4664   87.3958   10.1195 C.ar    1  UNL1        0.0868
     16 C          60.7934   88.6280   10.6473 C.ar    1  UNL1        0.0398
     17 C          59.8427   89.3947    9.7765 C.ar    1  UNL1        0.1005
     18 N          59.5650   88.9291    8.3779 N.ar    1  UNL1       -0.2407
     19 C          60.2380   87.6969    7.8501 C.ar    1  UNL1        0.1176
     20 C          61.1887   86.9302    8.7209 C.ar    1  UNL1        0.0993
     21 C          64.1979   89.2893   14.7170 C.ar    1  UNL1        0.0713
     22 C          65.2096   90.1798   14.0586 C.ar    1  UNL1        0.0173
     23 C          65.5328   91.5174   14.6557 C.ar    1  UNL1        0.0579
     24 CL         66.5445   92.4079   13.9973 Cl      1  UNL1       -0.0822
     25 C          64.8444   91.9644   15.9111 C.ar    1  UNL1        0.0137
     26 C          63.8327   91.0739   16.5695 C.ar    1  UNL1        0.0306
     27 C          63.5095   89.7364   15.9724 C.ar    1  UNL1        0.1437
     28 F          62.4978   88.8459   16.6309 F       1  UNL1       -0.2040
@<TRIPOS>BOND
     1    10    11    1
     2    11    12   ar
     3    12    13    2
     4    12    14   ar
     5    14     1    1
     6     1     2    2
     7     2     3    1
     8     3    21    1
     9    21    22   ar
    10    22    23   ar
    11    23    24    1
    12    23    25   ar
    13    25    26   ar
    14    26    27   ar
    15    27    28    1
    16     3     4    2
    17     4     5    1
    18     5     6    2
    19     6     7    1
    20     7     8    2
    21     8     9    1
    22    14    15   ar
    23    15    16   ar
    24    16    17   ar
    25    17    18   ar
    26    18    19   ar
    27    19    20   ar
    28    20    11   ar
    29     9     1    1
    30    20    15   ar
    31    27    21   ar
    32     9     5    1
@<TRIPOS>MOLECULE
*****
 28 32 0 0 0
SMALL
GASTEIGER

@<TRIPOS>ATOM
      1 C          63.8086   87.0313   14.3538 C.2     1  UNL1        0.0651
      2 C          64.3732   88.3152   13.8223 C.2     1  UNL1        0.0608
      3 C          64.4525   89.5233   14.7079 C.2     1  UNL1        0.1964
      4 N          63.9672   89.4473   16.1252 N.2     1  UNL1       -0.0377
      5 C          63.4026   88.1634   16.6568 C.2     1  UNL1        0.3607
      6 N          62.8507   87.7899   18.0007 N.2     1  UNL1       -0.0343
      7 C          62.4303   86.3511   17.9455 C.2     1  UNL1        0.2321
      8 C          62.7224   85.8353   16.5676 C.2     1  UNL1        0.0423
      9 C          63.3233   86.9553   15.7712 C.3     1  UNL1        0.1762
     10 C          64.3486   82.1140   12.5074 C.3     1  UNL1        0.1352
     11 N          63.9775   83.5631   12.6195 N.ar    1  UNL1       -0.2762
     12 C          64.2818   84.4639   13.7796 C.ar    1  UNL1        0.3353
     13 O          65.0107   84.0739   15.0312 O.2     1  UNL1       -0.2459
     14 N          63.7293   85.8232   13.4682 N.ar    1  UNL1       -0.2615
     15 C          63.0835   85.7625   12.1157 C.ar    1  UNL1        0.0868
     16 C          62.3756   86.7987   11.2940 C.ar    1  UNL1        0.0398
     17 C          61.8212   86.4379    9.9477 C.ar    1  UNL1        0.1005
     18 N          61.9746   85.0410    9.4232 N.ar    1  UNL1       -0.2407
     19 C          62.6824   84.0049   10.2449 C.ar    1  UNL1        0.1176
     20 C          63.2369   84.3656   11.5911 C.ar    1  UNL1        0.0993
     21 C          65.0170   90.8072   14.1763 C.ar    1  UNL1        0.0713
     22 C          66.0056   91.5866   14.9920 C.ar    1  UNL1        0.0173
     23 C          66.5701   92.8705   14.4604 C.ar    1  UNL1        0.0579
     24 CL         67.5586   93.6499   15.2762 Cl      1  UNL1       -0.0822
     25 C          66.1463   93.3752   13.1130 C.ar    1  UNL1        0.0137
     26 C          65.1578   92.5959   12.2972 C.ar    1  UNL1        0.0306
     27 C          64.5932   91.3119   12.8288 C.ar    1  UNL1        0.1437
     28 F          63.6047   90.5326   12.0130 F       1  UNL1       -0.2040
@<TRIPOS>BOND
     1    10    11    1
     2    11    12   ar
     3    12    13    2
     4    12    14   ar
     5    14     1    1
     6     1     2    2
     7     2     3    1
     8     3    21    1
     9    21    22   ar
    10    22    23   ar
    11    23    24    1
    12    23    25   ar
    13    25    26   ar
    14    26    27   ar
    15    27    28    1
    16     3     4    2
    17     4     5    1
    18     5     6    2
    19     6     7    1
    20     7     8    2
    21     8     9    1
    22    14    15   ar
    23    15    16   ar
    24    16    17   ar
    25    17    18   ar
    26    18    19   ar
    27    19    20   ar
    28    20    11   ar
    29     9     1    1
    30    20    15   ar
    31    27    21   ar
    32     9     5    1
