@<TRIPOS>MOLECULE
*****
 37 40 0 0 0
SMALL
GASTEIGER

@<TRIPOS>ATOM
      1 N          63.0747   90.9316   11.7818 N.am    1  UNL1       -0.2438
      2 C          63.5679   91.5654   10.5149 C.3     1  UNL1        0.1009
      3 C          64.7543   92.4825   10.5475 C.3     1  UNL1        0.0662
      4 C          65.4477   92.7660   11.8471 C.3     1  UNL1        0.1600
      5 O          64.9546   92.1322   13.1140 O.3     1  UNL1       -0.4374
      6 C          63.7680   91.2150   13.0814 C.2     1  UNL1        0.4051
      7 O          63.2749   90.5813   14.3484 O.2     1  UNL1       -0.2262
      8 C          66.2823   93.5985   10.9196 C.ar    1  UNL1        0.0138
      9 C          66.2255   95.0953   10.9992 C.ar    1  UNL1       -0.0010
     10 C          67.0602   95.9279   10.0716 C.ar    1  UNL1       -0.0002
     11 C          67.9515   95.2636    9.0646 C.ar    1  UNL1       -0.0000
     12 C          68.0082   93.7668    8.9850 C.ar    1  UNL1       -0.0002
     13 C          67.1736   92.9343    9.9125 C.ar    1  UNL1       -0.0010
     14 C          61.8882   90.0145   11.7492 C.3     1  UNL1        0.1011
     15 C          60.5004   90.5814   11.7995 C.3     1  UNL1        0.0265
     16 C          62.4923   85.5622   11.5002 C.ar    1  UNL1        0.0014
     17 C          61.5072   86.2373   10.5926 C.ar    1  UNL1       -0.0002
     18 C          61.3058   87.7214   10.6756 C.ar    1  UNL1       -0.0027
     19 C          62.0896   88.5304   11.6662 C.ar    1  UNL1       -0.0042
     20 C          63.0747   87.8553   12.5738 C.ar    1  UNL1       -0.0027
     21 C          63.2760   86.3711   12.4908 C.ar    1  UNL1       -0.0002
     22 N          62.4702   81.7146   12.4728 N.ar    1  UNL1       -0.2960
     23 C          62.2689   83.1987   12.5558 C.ar    1  UNL1        0.0782
     24 C          62.6936   84.0780   11.4172 C.ar    1  UNL1        0.0175
     25 C          63.3196   83.4733   10.1956 C.ar    1  UNL1        0.0064
     26 C          63.5209   81.9892   10.1126 C.ar    1  UNL1        0.0608
     27 C          63.0962   81.1099   11.2512 C.ar    1  UNL1        0.2609
     28 O          63.2976   79.6257   11.1682 O.2     1  UNL1       -0.2670
     29 C          63.0583   79.9875   14.3224 C.3     1  UNL1        0.0246
     30 C          62.0456   80.8353   13.6114 C.3     1  UNL1        0.0886
     31 C          60.6082   80.8038   14.0390 C.3     1  UNL1        0.0246
     32 C          66.4308   93.3385   12.8246 C.3     1  UNL1        0.0714
     33 C          67.1043   92.4436   13.8223 C.3     1  UNL1        0.0922
     34 C          67.8117   91.7325   12.7070 C.3     1  UNL1        0.0294
     35 C          66.3969   93.1545   14.9377 C.3     1  UNL1        0.0294
     36 O          67.7778   91.5485   14.8201 O.3     1  UNL1       -0.3866
     37 H          68.3543   90.9221   14.3552 H       1  UNL1        0.2102
@<TRIPOS>BOND
     1    29    30    1
     2    30    31    1
     3    30    22    1
     4    22    23   ar
     5    23    24   ar
     6    24    16    1
     7    16    17   ar
     8    17    18   ar
     9    18    19   ar
    10    19    14    1
    11    14    15    1
    12    14     1    1
    13     1     2    1
    14     2     3    1
    15     3     4    1
    16     4    32    1
    17    32    33    1
    18    33    34    1
    19    33    35    1
    20    33    36    1
    21     4     8    1
    22     8     9   ar
    23     9    10   ar
    24    10    11   ar
    25    11    12   ar
    26    12    13   ar
    27     4     5    1
    28     5     6    1
    29     6     7    2
    30    19    20   ar
    31    20    21   ar
    32    24    25   ar
    33    25    26   ar
    34    26    27   ar
    35    27    28    2
    36    27    22   ar
    37    21    16   ar
    38     6     1   am
    39    13     8   ar
    40    36    37    1
@<TRIPOS>MOLECULE
*****
 37 40 0 0 0
SMALL
GASTEIGER

@<TRIPOS>ATOM
      1 N          63.4896   90.6256   12.0075 N.am    1  UNL1       -0.2438
      2 C          64.1895   90.4466   13.3221 C.3     1  UNL1        0.1009
      3 C          65.3959   91.2761   13.6485 C.3     1  UNL1        0.0662
      4 C          65.9024   92.2846   12.6604 C.3     1  UNL1        0.1600
      5 O          65.2025   92.4636   11.3458 O.3     1  UNL1       -0.4374
      6 C          63.9961   91.6341   11.0193 C.2     1  UNL1        0.4051
      7 O          63.2963   91.8131    9.7048 O.2     1  UNL1       -0.2262
      8 C          66.8983   92.4793   13.7650 C.ar    1  UNL1        0.0138
      9 C          68.3007   91.9707   13.6087 C.ar    1  UNL1       -0.0010
     10 C          69.2967   92.1654   14.7135 C.ar    1  UNL1       -0.0002
     11 C          68.8900   92.8687   15.9744 C.ar    1  UNL1       -0.0000
     12 C          67.4876   93.3773   16.1307 C.ar    1  UNL1       -0.0002
     13 C          66.4917   93.1826   15.0260 C.ar    1  UNL1       -0.0010
     14 C          62.2832   89.7961   11.6810 C.3     1  UNL1        0.1011
     15 C          60.9614   90.4601   11.4324 C.3     1  UNL1        0.0265
     16 C          62.6297   85.3156   11.4478 C.ar    1  UNL1        0.0014
     17 C          63.2423   86.0562   12.5994 C.ar    1  UNL1       -0.0002
     18 C          63.1268   87.5497   12.6771 C.ar    1  UNL1       -0.0027
     19 C          62.3987   88.3026   11.6033 C.ar    1  UNL1       -0.0042
     20 C          61.7861   87.5619   10.4517 C.ar    1  UNL1       -0.0027
     21 C          61.9016   86.0684   10.3740 C.ar    1  UNL1       -0.0002
     22 N          62.3770   81.4787   12.4299 N.ar    1  UNL1       -0.2960
     23 C          62.2615   82.9722   12.5075 C.ar    1  UNL1        0.0782
     24 C          62.7452   83.8220   11.3701 C.ar    1  UNL1        0.0175
     25 C          63.3443   83.1783   10.1549 C.ar    1  UNL1        0.0064
     26 C          63.4598   81.6848   10.0772 C.ar    1  UNL1        0.0608
     27 C          62.9761   80.8350   11.2147 C.ar    1  UNL1        0.2609
     28 O          63.0916   79.3414   11.1370 O.2     1  UNL1       -0.2670
     29 C          60.4893   80.7809   14.0730 C.3     1  UNL1        0.0246
     30 C          61.8933   80.6288   13.5674 C.3     1  UNL1        0.0886
     31 C          62.8136   79.6269   14.1992 C.3     1  UNL1        0.0246
     32 C          66.7548   93.3607   12.0559 C.3     1  UNL1        0.0714
     33 C          66.6038   93.7107   10.6051 C.3     1  UNL1        0.0922
     34 C          67.4314   92.5169   10.2310 C.3     1  UNL1        0.0294
     35 C          65.7763   94.9045   10.9792 C.3     1  UNL1        0.0294
     36 O          66.4529   94.0607    9.1543 O.3     1  UNL1       -0.3866
     37 H          66.9249   93.4083    8.6135 H       1  UNL1        0.2102
@<TRIPOS>BOND
     1    29    30    1
     2    30    31    1
     3    30    22    1
     4    22    23   ar
     5    23    24   ar
     6    24    16    1
     7    16    17   ar
     8    17    18   ar
     9    18    19   ar
    10    19    14    1
    11    14    15    1
    12    14     1    1
    13     1     2    1
    14     2     3    1
    15     3     4    1
    16     4    32    1
    17    32    33    1
    18    33    34    1
    19    33    35    1
    20    33    36    1
    21     4     8    1
    22     8     9   ar
    23     9    10   ar
    24    10    11   ar
    25    11    12   ar
    26    12    13   ar
    27     4     5    1
    28     5     6    1
    29     6     7    2
    30    19    20   ar
    31    20    21   ar
    32    24    25   ar
    33    25    26   ar
    34    26    27   ar
    35    27    28    2
    36    27    22   ar
    37    21    16   ar
    38     6     1   am
    39    13     8   ar
    40    36    37    1
