@<TRIPOS>MOLECULE
*****
 33 37 0 0 0
SMALL
GASTEIGER

@<TRIPOS>ATOM
      1 C          60.3320   95.3837   -2.2119 C.ar    1  UNL1        0.1060
      2 C          58.9097   95.2610   -1.7515 C.ar    1  UNL1        0.0215
      3 C          58.5927   94.5250   -0.4836 C.ar    1  UNL1        0.0383
      4 C          59.6980   93.9115    0.3240 C.ar    1  UNL1        0.1410
      5 C          61.1203   94.0342   -0.1364 C.ar    1  UNL1        0.0700
      6 C          61.4373   94.7703   -1.4044 C.ar    1  UNL1        0.0242
      7 C          62.2256   93.4208    0.6711 C.2     1  UNL1        0.1795
      8 O          63.6479   93.5435    0.2107 O.2     1  UNL1       -0.2911
      9 C          61.9086   92.6847    1.9391 C.3     1  UNL1        0.1092
     10 C          60.4863   92.5620    2.3995 C.3     1  UNL1        0.1436
     11 C          61.5915   91.9486    3.2070 C.3     1  UNL1        0.0620
     12 C          61.2745   91.2125    4.4749 C.3     1  UNL1        0.0985
     13 N          59.8522   91.0899    4.9353 N.am    1  UNL1       -0.2640
     14 C          59.5352   90.3537    6.2033 C.2     1  UNL1        0.3039
     15 O          58.1129   90.2310    6.6637 O.2     1  UNL1       -0.2526
     16 N          60.6405   89.7403    7.0108 N.am    1  UNL1       -0.2901
     17 C          58.7469   91.7032    4.1278 C.3     1  UNL1        0.0985
     18 C          59.0640   92.4393    2.8599 C.3     1  UNL1        0.0620
     19 O          59.3810   93.1754    1.5919 O.3     1  UNL1       -0.4819
     20 H          61.5740   89.8209    6.7086 H       1  UNL1        0.1509
     21 C          60.9662   96.8559   -4.7478 C.3     1  UNL1        0.1816
     22 S          60.6491   96.1198   -3.4798 S.O2    1  UNL1        0.0105
     23 O          59.1913   96.4154   -3.6727 O.2     1  UNL1       -0.1686
     24 O          62.1069   95.8241   -3.2869 O.2     1  UNL1       -0.1686
     25 C          60.3234   89.0042    8.2787 C.3     1  UNL1        0.0774
     26 C          59.4735   88.8311    9.5025 C.3     1  UNL1        0.0259
     27 C          60.6243   87.9024    9.2511 C.3     1  UNL1        0.0420
     28 C          61.4624   86.7301    9.6673 C.ar    1  UNL1       -0.0208
     29 C          62.2656   85.9818    8.6452 C.ar    1  UNL1       -0.0042
     30 C          63.1037   84.8095    9.0614 C.ar    1  UNL1       -0.0003
     31 C          63.1386   84.3855   10.4999 C.ar    1  UNL1       -0.0000
     32 C          62.3354   85.1338   11.5220 C.ar    1  UNL1       -0.0003
     33 C          61.4972   86.3062   11.1057 C.ar    1  UNL1       -0.0042
@<TRIPOS>BOND
     1    21    22    1
     2    22    23    2
     3    22    24    2
     4    22     1    1
     5     1     2   ar
     6     2     3   ar
     7     3     4   ar
     8     4     5   ar
     9     5     6   ar
    10     5     7    1
    11     7     8    2
    12     7     9    1
    13     9    10    1
    14    10    11    1
    15    11    12    1
    16    12    13    1
    17    13    14   am
    18    14    15    2
    19    14    16   am
    20    25    16    1
    21    25    26    1
    22    26    27    1
    23    27    28    1
    24    28    29   ar
    25    29    30   ar
    26    30    31   ar
    27    31    32   ar
    28    32    33   ar
    29    13    17    1
    30    17    18    1
    31    10    19    1
    32     6     1   ar
    33    18    10    1
    34    19     4    1
    35    27    25    1
    36    33    28   ar
    37    16    20    1
@<TRIPOS>MOLECULE
*****
 33 37 0 0 0
SMALL
GASTEIGER

@<TRIPOS>ATOM
      1 C          63.4334   95.6078   -3.1785 C.ar    1  UNL1        0.1060
      2 C          61.9430   95.7375   -3.0707 C.ar    1  UNL1        0.0215
      3 C          61.2174   95.1135   -1.9157 C.ar    1  UNL1        0.0383
      4 C          61.9823   94.3597   -0.8684 C.ar    1  UNL1        0.1410
      5 C          63.4728   94.2300   -0.9762 C.ar    1  UNL1        0.0700
      6 C          64.1984   94.8541   -2.1312 C.ar    1  UNL1        0.0242
      7 C          64.2377   93.4762    0.0710 C.2     1  UNL1        0.1795
      8 O          65.7282   93.3465   -0.0367 O.2     1  UNL1       -0.2911
      9 C          63.5121   92.8521    1.2261 C.3     1  UNL1        0.1092
     10 C          62.0216   92.9818    1.3339 C.3     1  UNL1        0.1436
     11 C          62.7865   92.2280    2.3811 C.3     1  UNL1        0.0620
     12 C          62.0609   91.6040    3.5361 C.3     1  UNL1        0.0985
     13 N          60.5704   91.7337    3.6438 N.am    1  UNL1       -0.2640
     14 C          59.8448   91.1096    4.7989 C.2     1  UNL1        0.3039
     15 O          58.3543   91.2393    4.9066 O.2     1  UNL1       -0.2526
     16 N          60.6097   90.3558    5.8461 N.am    1  UNL1       -0.2901
     17 C          59.8055   92.4874    2.5966 C.3     1  UNL1        0.0985
     18 C          60.5311   93.1115    1.4416 C.3     1  UNL1        0.0620
     19 O          61.2567   93.7356    0.2866 O.3     1  UNL1       -0.4819
     20 H          61.5880   90.2707    5.7754 H       1  UNL1        0.1509
     21 C          64.8846   96.8560   -5.4885 C.3     1  UNL1        0.1816
     22 S          64.1590   96.2319   -4.3334 S.O2    1  UNL1        0.0105
     23 O          65.4214   96.2624   -3.5239 O.2     1  UNL1       -0.1686
     24 O          62.8967   96.2014   -5.1430 O.2     1  UNL1       -0.1686
     25 C          59.8841   89.7317    7.0012 C.3     1  UNL1        0.0774
     26 C          58.6034   89.4358    7.7237 C.3     1  UNL1        0.0259
     27 C          59.9081   88.9467    8.2791 C.3     1  UNL1        0.0420
     28 C          60.6753   88.2111    9.3376 C.ar    1  UNL1       -0.0208
     29 C          61.5985   88.9604   10.2520 C.ar    1  UNL1       -0.0042
     30 C          62.3657   88.2248   11.3105 C.ar    1  UNL1       -0.0003
     31 C          62.2096   86.7399   11.4545 C.ar    1  UNL1       -0.0000
     32 C          61.2863   85.9906   10.5401 C.ar    1  UNL1       -0.0003
     33 C          60.5192   86.7263    9.4816 C.ar    1  UNL1       -0.0042
@<TRIPOS>BOND
     1    21    22    1
     2    22    23    2
     3    22    24    2
     4    22     1    1
     5     1     2   ar
     6     2     3   ar
     7     3     4   ar
     8     4     5   ar
     9     5     6   ar
    10     5     7    1
    11     7     8    2
    12     7     9    1
    13     9    10    1
    14    10    11    1
    15    11    12    1
    16    12    13    1
    17    13    14   am
    18    14    15    2
    19    14    16   am
    20    25    16    1
    21    25    26    1
    22    26    27    1
    23    27    28    1
    24    28    29   ar
    25    29    30   ar
    26    30    31   ar
    27    31    32   ar
    28    32    33   ar
    29    13    17    1
    30    17    18    1
    31    10    19    1
    32     6     1   ar
    33    18    10    1
    34    19     4    1
    35    27    25    1
    36    33    28   ar
    37    16    20    1
@<TRIPOS>MOLECULE
*****
 33 37 0 0 0
SMALL
GASTEIGER

@<TRIPOS>ATOM
      1 C          63.4520   83.9684   13.7628 C.ar    1  UNL1        0.1060
      2 C          62.6909   83.1384   12.7719 C.ar    1  UNL1        0.0215
      3 C          62.0141   83.7958   11.6058 C.ar    1  UNL1        0.0383
      4 C          62.0984   85.2831   11.4305 C.ar    1  UNL1        0.1410
      5 C          62.8595   86.1131   12.4213 C.ar    1  UNL1        0.0700
      6 C          63.5364   85.4558   13.5875 C.ar    1  UNL1        0.0242
      7 C          62.9439   87.6004   12.2461 C.2     1  UNL1        0.1795
      8 O          63.7050   88.4304   13.2369 O.2     1  UNL1       -0.2911
      9 C          62.2671   88.2578   11.0799 C.3     1  UNL1        0.1092
     10 C          61.5059   87.4278   10.0891 C.3     1  UNL1        0.1436
     11 C          61.5903   88.9151    9.9138 C.3     1  UNL1        0.0620
     12 C          60.9135   89.5724    8.7477 C.3     1  UNL1        0.0985
     13 N          60.1523   88.7424    7.7569 N.am    1  UNL1       -0.2640
     14 C          59.4755   89.3998    6.5907 C.2     1  UNL1        0.3039
     15 O          58.7144   88.5698    5.5999 O.2     1  UNL1       -0.2526
     16 N          59.5598   90.8871    6.4155 N.am    1  UNL1       -0.2901
     17 C          60.0680   87.2551    7.9321 C.3     1  UNL1        0.0985
     18 C          60.7448   86.5978    9.0983 C.3     1  UNL1        0.0620
     19 O          61.4216   85.9404   10.2644 O.3     1  UNL1       -0.4819
     20 H          60.0594   91.4319    7.0658 H       1  UNL1        0.1509
     21 C          64.8057   82.6538   16.0950 C.3     1  UNL1        0.1816
     22 S          64.1288   83.3111   14.9289 S.O2    1  UNL1        0.0105
     23 O          63.5374   81.9921   14.5286 O.2     1  UNL1       -0.1686
     24 O          64.7202   84.6302   15.3291 O.2     1  UNL1       -0.1686
     25 C          58.8830   91.5445    5.2493 C.3     1  UNL1        0.0774
     26 C          57.6333   92.0346    4.5799 C.3     1  UNL1        0.0259
     27 C          58.9604   92.1930    3.8990 C.3     1  UNL1        0.0420
     28 C          59.7713   92.6589    2.7262 C.ar    1  UNL1       -0.0208
     29 C          61.2686   92.6833    2.8120 C.ar    1  UNL1       -0.0042
     30 C          62.0795   93.1492    1.6393 C.ar    1  UNL1       -0.0003
     31 C          61.3931   93.5908    0.3807 C.ar    1  UNL1       -0.0000
     32 C          59.8957   93.5663    0.2949 C.ar    1  UNL1       -0.0003
     33 C          59.0848   93.1004    1.4678 C.ar    1  UNL1       -0.0042
@<TRIPOS>BOND
     1    21    22    1
     2    22    23    2
     3    22    24    2
     4    22     1    1
     5     1     2   ar
     6     2     3   ar
     7     3     4   ar
     8     4     5   ar
     9     5     6   ar
    10     5     7    1
    11     7     8    2
    12     7     9    1
    13     9    10    1
    14    10    11    1
    15    11    12    1
    16    12    13    1
    17    13    14   am
    18    14    15    2
    19    14    16   am
    20    25    16    1
    21    25    26    1
    22    26    27    1
    23    27    28    1
    24    28    29   ar
    25    29    30   ar
    26    30    31   ar
    27    31    32   ar
    28    32    33   ar
    29    13    17    1
    30    17    18    1
    31    10    19    1
    32     6     1   ar
    33    18    10    1
    34    19     4    1
    35    27    25    1
    36    33    28   ar
    37    16    20    1
@<TRIPOS>MOLECULE
*****
 33 37 0 0 0
SMALL
GASTEIGER

@<TRIPOS>ATOM
      1 C          62.2289   82.4568   13.7309 C.ar    1  UNL1        0.1060
      2 C          61.8568   82.9689   12.3710 C.ar    1  UNL1        0.0215
      3 C          62.1879   84.3799   11.9846 C.ar    1  UNL1        0.0383
      4 C          62.8911   85.2789   12.9580 C.ar    1  UNL1        0.1410
      5 C          63.2631   84.7667   14.3179 C.ar    1  UNL1        0.0700
      6 C          62.9320   83.3556   14.7043 C.ar    1  UNL1        0.0242
      7 C          63.9663   85.6656   15.2913 C.2     1  UNL1        0.1795
      8 O          64.3383   85.1534   16.6512 O.2     1  UNL1       -0.2911
      9 C          64.2974   87.0767   14.9049 C.3     1  UNL1        0.1092
     10 C          63.9253   87.5888   13.5450 C.3     1  UNL1        0.1436
     11 C          64.6285   88.4877   14.5185 C.3     1  UNL1        0.0620
     12 C          64.9596   89.8987   14.1320 C.3     1  UNL1        0.0985
     13 N          64.5875   90.4108   12.7721 N.am    1  UNL1       -0.2640
     14 C          64.9186   91.8219   12.3857 C.2     1  UNL1        0.3039
     15 O          64.5466   92.3341   11.0258 O.2     1  UNL1       -0.2526
     16 N          65.6218   92.7208   13.3591 N.am    1  UNL1       -0.2901
     17 C          63.8844   89.5120   11.7987 C.3     1  UNL1        0.0985
     18 C          63.5533   88.1010   12.1851 C.3     1  UNL1        0.0620
     19 O          63.2222   86.6899   12.5716 O.3     1  UNL1       -0.4819
     20 H          65.8659   92.3846   14.2516 H       1  UNL1        0.1509
     21 C          61.5667   79.6347   14.5038 C.3     1  UNL1        0.1816
     22 S          61.8978   81.0458   14.1174 S.O2    1  UNL1        0.0105
     23 O          60.4353   81.3754   14.0681 O.2     1  UNL1       -0.1686
     24 O          63.3602   80.7161   14.1666 O.2     1  UNL1       -0.1686
     25 C          65.9529   94.1319   12.9727 C.3     1  UNL1        0.0774
     26 C          66.3253   95.5319   13.3616 C.3     1  UNL1        0.0259
     27 C          66.1540   95.1759   11.9145 C.3     1  UNL1        0.0420
     28 C          66.1713   95.5730   10.4682 C.ar    1  UNL1       -0.0208
     29 C          67.2732   95.0918    9.5714 C.ar    1  UNL1       -0.0042
     30 C          67.2904   95.4889    8.1251 C.ar    1  UNL1       -0.0003
     31 C          66.2057   96.3673    7.5755 C.ar    1  UNL1       -0.0000
     32 C          65.1039   96.8486    8.4723 C.ar    1  UNL1       -0.0003
     33 C          65.0866   96.4514    9.9187 C.ar    1  UNL1       -0.0042
@<TRIPOS>BOND
     1    21    22    1
     2    22    23    2
     3    22    24    2
     4    22     1    1
     5     1     2   ar
     6     2     3   ar
     7     3     4   ar
     8     4     5   ar
     9     5     6   ar
    10     5     7    1
    11     7     8    2
    12     7     9    1
    13     9    10    1
    14    10    11    1
    15    11    12    1
    16    12    13    1
    17    13    14   am
    18    14    15    2
    19    14    16   am
    20    25    16    1
    21    25    26    1
    22    26    27    1
    23    27    28    1
    24    28    29   ar
    25    29    30   ar
    26    30    31   ar
    27    31    32   ar
    28    32    33   ar
    29    13    17    1
    30    17    18    1
    31    10    19    1
    32     6     1   ar
    33    18    10    1
    34    19     4    1
    35    27    25    1
    36    33    28   ar
    37    16    20    1
@<TRIPOS>MOLECULE
*****
 33 37 0 0 0
SMALL
GASTEIGER

@<TRIPOS>ATOM
      1 C          65.5645   94.0453   11.8380 C.ar    1  UNL1        0.1060
      2 C          64.8896   93.5193   10.6060 C.ar    1  UNL1        0.0215
      3 C          64.3659   92.1140   10.5798 C.ar    1  UNL1        0.0383
      4 C          64.5170   91.2346   11.7856 C.ar    1  UNL1        0.1410
      5 C          65.1919   91.7606   13.0176 C.ar    1  UNL1        0.0700
      6 C          65.7157   93.1660   13.0438 C.ar    1  UNL1        0.0242
      7 C          65.3431   90.8813   14.2234 C.2     1  UNL1        0.1795
      8 O          66.0180   91.4073   15.4554 O.2     1  UNL1       -0.2911
      9 C          64.8193   89.4759   14.1972 C.3     1  UNL1        0.1092
     10 C          64.1444   88.9499   12.9652 C.3     1  UNL1        0.1436
     11 C          64.2955   88.0706   14.1710 C.3     1  UNL1        0.0620
     12 C          63.7718   86.6653   14.1448 C.3     1  UNL1        0.0985
     13 N          63.0969   86.1393   12.9128 N.am    1  UNL1       -0.2640
     14 C          62.5731   84.7339   12.8866 C.2     1  UNL1        0.3039
     15 O          61.8982   84.2078   11.6546 O.2     1  UNL1       -0.2526
     16 N          62.7243   83.8546   14.0924 N.am    1  UNL1       -0.2901
     17 C          62.9457   87.0186   11.7070 C.3     1  UNL1        0.0985
     18 C          63.4695   88.4239   11.7332 C.3     1  UNL1        0.0620
     19 O          63.9933   89.8293   11.7594 O.3     1  UNL1       -0.4819
     20 H          63.1672   84.1998   14.9010 H       1  UNL1        0.1509
     21 C          66.6121   96.8560   11.8904 C.3     1  UNL1        0.1816
     22 S          66.0883   95.4506   11.8643 S.O2    1  UNL1        0.0105
     23 O          66.5149   95.2650   13.2903 O.2     1  UNL1       -0.1686
     24 O          65.6617   95.6362   10.4383 O.2     1  UNL1       -0.1686
     25 C          62.2005   82.4492   14.0662 C.3     1  UNL1        0.0774
     26 C          61.4222   81.3407   14.7108 C.3     1  UNL1        0.0259
     27 C          62.0716   81.1235   13.3763 C.3     1  UNL1        0.0420
     28 C          62.3721   80.2328   12.2074 C.ar    1  UNL1       -0.0208
     29 C          62.3446   78.7423   12.3737 C.ar    1  UNL1       -0.0042
     30 C          62.6451   77.8515   11.2049 C.ar    1  UNL1       -0.0003
     31 C          62.9732   78.4513    9.8697 C.ar    1  UNL1       -0.0000
     32 C          63.0008   79.9418    9.7034 C.ar    1  UNL1       -0.0003
     33 C          62.7002   80.8325   10.8723 C.ar    1  UNL1       -0.0042
@<TRIPOS>BOND
     1    21    22    1
     2    22    23    2
     3    22    24    2
     4    22     1    1
     5     1     2   ar
     6     2     3   ar
     7     3     4   ar
     8     4     5   ar
     9     5     6   ar
    10     5     7    1
    11     7     8    2
    12     7     9    1
    13     9    10    1
    14    10    11    1
    15    11    12    1
    16    12    13    1
    17    13    14   am
    18    14    15    2
    19    14    16   am
    20    25    16    1
    21    25    26    1
    22    26    27    1
    23    27    28    1
    24    28    29   ar
    25    29    30   ar
    26    30    31   ar
    27    31    32   ar
    28    32    33   ar
    29    13    17    1
    30    17    18    1
    31    10    19    1
    32     6     1   ar
    33    18    10    1
    34    19     4    1
    35    27    25    1
    36    33    28   ar
    37    16    20    1
