@<TRIPOS>MOLECULE
*****
 45 50 0 0 0
SMALL
GASTEIGER

@<TRIPOS>ATOM
      1 O          63.7293   91.7324   10.1121 O.2     1  UNL1       -0.2733
      2 C          64.1966   91.5769   11.5289 C.2     1  UNL1        0.2410
      3 N          63.6163   90.4992   12.3960 N.am    1  UNL1       -0.2966
      4 H          63.9230   90.3972   13.3260 H       1  UNL1        0.1499
      5 C          62.5688   89.5770   11.8463 C.3     1  UNL1        0.1543
      6 C          62.6987   88.0951   12.0386 C.ar    1  UNL1        0.1417
      7 N          63.6474   87.4072   12.9749 N.ar    1  UNL1       -0.2276
      8 C          63.4377   85.9278   12.8433 C.ar    1  UNL1        0.1167
      9 C          64.0893   84.7577   13.5187 C.ar    1  UNL1        0.0238
     10 C          63.6626   83.3611   13.1763 C.ar    1  UNL1        0.0223
     11 C          62.5842   83.1345   12.1585 C.ar    1  UNL1        0.1006
     12 N          61.9326   84.3047   11.4832 N.ar    1  UNL1       -0.2252
     13 C          62.3593   85.7013   11.8256 C.ar    1  UNL1        0.1626
     14 N          61.9026   87.0407   11.3282 N.ar    1  UNL1       -0.2990
     15 C          60.8369   87.2832   10.3009 C.3     1  UNL1        0.0898
     16 C          59.5835   87.8104    9.6675 C.3     1  UNL1        0.0273
     17 C          59.9265   88.1872   11.0783 C.3     1  UNL1        0.0273
     18 C          61.3770   86.4636    9.1667 C.ar    1  UNL1       -0.0037
     19 C          60.4544   85.9709    8.0916 C.ar    1  UNL1       -0.0025
     20 C          60.9946   85.1512    6.9573 C.ar    1  UNL1       -0.0003
     21 C          62.4573   84.8242    6.8984 C.ar    1  UNL1       -0.0000
     22 C          63.3799   85.3169    7.9737 C.ar    1  UNL1       -0.0003
     23 C          62.8398   86.1366    9.1078 C.ar    1  UNL1       -0.0025
     24 C          65.2441   92.4992   12.0787 C.3     1  UNL1        0.1531
     25 N          66.1021   92.0595   13.2278 N.am    1  UNL1       -0.2979
     26 C          66.7364   93.0814   14.1242 C.2     1  UNL1        0.2299
     27 O          66.5128   94.5429   13.8714 O.2     1  UNL1       -0.2748
     28 H          66.2488   91.1002   13.3938 H       1  UNL1        0.1498
     29 C          67.5944   92.6417   15.2734 C.3     1  UNL1        0.1557
     30 C          67.9893   92.2282   16.6601 C.3     1  UNL1        0.0177
     31 C          66.5595   92.5645   16.3565 C.3     1  UNL1        0.0177
     32 C          68.9272   92.5662   14.5895 C.3     1  UNL1        0.4048
     33 F          70.2601   92.4908   13.9056 F       1  UNL1       -0.1695
     34 F          69.4092   93.7326   15.4001 F       1  UNL1       -0.1695
     35 F          68.4452   91.3998   13.7788 F       1  UNL1       -0.1695
     36 C          65.4337   93.8610   11.4792 C.3     1  UNL1        0.0599
     37 C          66.3368   94.0402   10.2950 C.ar    1  UNL1        0.0371
     38 C          66.2039   95.2567    9.4277 C.ar    1  UNL1        0.1385
     39 F          65.1678   96.2942    9.7445 F       1  UNL1       -0.2044
     40 C          67.1069   95.4359    8.2435 C.ar    1  UNL1        0.0318
     41 C          68.1430   94.3985    7.9267 C.ar    1  UNL1        0.0342
     42 C          68.2759   93.1820    8.7940 C.ar    1  UNL1        0.1672
     43 F          69.3121   92.1446    8.4771 F       1  UNL1       -0.2018
     44 C          67.3729   93.0028    9.9782 C.ar    1  UNL1        0.1656
     45 F          67.5059   91.7862   10.8455 F       1  UNL1       -0.2021
@<TRIPOS>BOND
     1     1     2    2
     2     2     3   am
     3     3     5    1
     4     5     6    1
     5     6     7   ar
     6     7     8   ar
     7     8     9   ar
     8     9    10   ar
     9    10    11   ar
    10    11    12   ar
    11    12    13   ar
    12    13    14   ar
    13    14    15    1
    14    15    18    1
    15    18    19   ar
    16    19    20   ar
    17    20    21   ar
    18    21    22   ar
    19    22    23   ar
    20    15    16    1
    21    16    17    1
    22     2    24    1
    23    24    36    1
    24    36    37    1
    25    37    38   ar
    26    38    39    1
    27    38    40   ar
    28    40    41   ar
    29    41    42   ar
    30    42    43    1
    31    42    44   ar
    32    44    45    1
    33    24    25    1
    34    25    26   am
    35    26    27    2
    36    26    29    1
    37    29    32    1
    38    32    33    1
    39    32    34    1
    40    32    35    1
    41    29    30    1
    42    30    31    1
    43    14     6   ar
    44    17    15    1
    45    44    37   ar
    46    31    29    1
    47    13     8   ar
    48    23    18   ar
    49     3     4    1
    50    25    28    1
@<TRIPOS>MOLECULE
*****
 45 50 0 0 0
SMALL
GASTEIGER

@<TRIPOS>ATOM
      1 O          64.0918   86.7428   14.4505 O.2     1  UNL1       -0.2733
      2 C          63.4794   87.0627   13.1191 C.2     1  UNL1        0.2410
      3 N          63.3564   88.4898   12.6736 N.am    1  UNL1       -0.2966
      4 H          62.9545   88.6997   11.7998 H       1  UNL1        0.1499
      5 C          63.8457   89.5969   13.5595 C.3     1  UNL1        0.1543
      6 C          64.3899   90.8568   12.9543 C.ar    1  UNL1        0.1417
      7 N          64.3319   91.2348   11.5038 N.ar    1  UNL1       -0.2276
      8 C          64.9938   92.5716   11.3463 C.ar    1  UNL1        0.1167
      9 C          65.2315   93.4386   10.1456 C.ar    1  UNL1        0.0238
     10 C          65.9363   94.7539   10.2980 C.ar    1  UNL1        0.0223
     11 C          66.4032   95.2022   11.6511 C.ar    1  UNL1        0.1006
     12 N          66.1655   94.3352   12.8518 N.ar    1  UNL1       -0.2252
     13 C          65.4607   93.0199   12.6994 C.ar    1  UNL1        0.1626
     14 N          65.0875   91.9601   13.6932 N.ar    1  UNL1       -0.2990
     15 C          65.3635   91.9972   15.1671 C.3     1  UNL1        0.0898
     16 C          65.1296   91.9274   16.6471 C.3     1  UNL1        0.0273
     17 C          63.9913   91.7024   15.6966 C.3     1  UNL1        0.0273
     18 C          66.8315   92.3049   15.1496 C.ar    1  UNL1       -0.0037
     19 C          67.3965   93.3192   16.0992 C.ar    1  UNL1       -0.0025
     20 C          68.8645   93.6270   16.0817 C.ar    1  UNL1       -0.0003
     21 C          69.7674   92.9202   15.1146 C.ar    1  UNL1       -0.0000
     22 C          69.2024   91.9058   14.1650 C.ar    1  UNL1       -0.0003
     23 C          67.7344   91.5981   14.1825 C.ar    1  UNL1       -0.0025
     24 C          62.9901   85.9556   12.2331 C.3     1  UNL1        0.1531
     25 N          61.7306   86.1326   11.4379 N.am    1  UNL1       -0.2979
     26 C          61.6904   87.1159   10.3058 C.2     1  UNL1        0.2299
     27 O          62.9096   87.9222    9.9691 O.2     1  UNL1       -0.2748
     28 H          60.9305   85.6033   11.6589 H       1  UNL1        0.1498
     29 C          60.4310   87.2929    9.5105 C.3     1  UNL1        0.1557
     30 C          59.3271   87.0059    8.5363 C.3     1  UNL1        0.0177
     31 C          60.4414   86.0186    8.7192 C.3     1  UNL1        0.0177
     32 C          59.9831   88.6286   10.0256 C.3     1  UNL1        0.4048
     33 F          59.5353   89.9643   10.5406 F       1  UNL1       -0.1695
     34 F          60.4063   89.2676    8.7362 F       1  UNL1       -0.1695
     35 F          59.5600   87.9895   11.3150 F       1  UNL1       -0.1695
     36 C          63.7602   84.6716   12.1425 C.3     1  UNL1        0.0599
     37 C          63.1354   83.3881   12.6034 C.ar    1  UNL1        0.0371
     38 C          62.4168   83.3338   13.9189 C.ar    1  UNL1        0.1385
     39 F          62.3231   84.5630   14.7736 F       1  UNL1       -0.2044
     40 C          61.7920   82.0504   14.3798 C.ar    1  UNL1        0.0318
     41 C          61.8857   80.8213   13.5251 C.ar    1  UNL1        0.0342
     42 C          62.6043   80.8757   12.2096 C.ar    1  UNL1        0.1672
     43 F          62.6980   79.6465   11.3548 F       1  UNL1       -0.2018
     44 C          63.2291   82.1590   11.7487 C.ar    1  UNL1        0.1656
     45 F          63.9476   82.2134   10.4331 F       1  UNL1       -0.2021
@<TRIPOS>BOND
     1     1     2    2
     2     2     3   am
     3     3     5    1
     4     5     6    1
     5     6     7   ar
     6     7     8   ar
     7     8     9   ar
     8     9    10   ar
     9    10    11   ar
    10    11    12   ar
    11    12    13   ar
    12    13    14   ar
    13    14    15    1
    14    15    18    1
    15    18    19   ar
    16    19    20   ar
    17    20    21   ar
    18    21    22   ar
    19    22    23   ar
    20    15    16    1
    21    16    17    1
    22     2    24    1
    23    24    36    1
    24    36    37    1
    25    37    38   ar
    26    38    39    1
    27    38    40   ar
    28    40    41   ar
    29    41    42   ar
    30    42    43    1
    31    42    44   ar
    32    44    45    1
    33    24    25    1
    34    25    26   am
    35    26    27    2
    36    26    29    1
    37    29    32    1
    38    32    33    1
    39    32    34    1
    40    32    35    1
    41    29    30    1
    42    30    31    1
    43    14     6   ar
    44    17    15    1
    45    44    37   ar
    46    31    29    1
    47    13     8   ar
    48    23    18   ar
    49     3     4    1
    50    25    28    1
@<TRIPOS>MOLECULE
*****
 45 50 0 0 0
SMALL
GASTEIGER

@<TRIPOS>ATOM
      1 O          64.4290   89.7498   13.0503 O.2     1  UNL1       -0.2733
      2 C          63.4236   89.5664   11.9524 C.2     1  UNL1        0.2410
      3 N          63.2635   90.6214   10.8981 N.am    1  UNL1       -0.2966
      4 H          62.6036   90.5010   10.1775 H       1  UNL1        0.1499
      5 C          64.1089   91.8597   10.9418 C.3     1  UNL1        0.1543
      6 C          65.0139   92.1091   12.1117 C.ar    1  UNL1        0.1417
      7 N          64.6254   92.0347   13.5586 N.ar    1  UNL1       -0.2276
      8 C          65.8377   92.3563   14.3813 C.ar    1  UNL1        0.1167
      9 C          66.0526   92.4357   15.8637 C.ar    1  UNL1        0.0238
     10 C          67.4053   92.7882   16.4076 C.ar    1  UNL1        0.0223
     11 C          68.5431   93.0613   15.4691 C.ar    1  UNL1        0.1006
     12 N          68.3283   92.9819   13.9867 N.ar    1  UNL1       -0.2252
     13 C          66.9756   92.6294   13.4428 C.ar    1  UNL1        0.1626
     14 N          66.4664   92.4766   12.0402 N.ar    1  UNL1       -0.2990
     15 C          67.2689   92.6593   10.7861 C.3     1  UNL1        0.0898
     16 C          68.2107   92.3561    9.6586 C.3     1  UNL1        0.0273
     17 C          67.9486   91.3239   10.7149 C.3     1  UNL1        0.0273
     18 C          66.8681   94.0580   10.4218 C.ar    1  UNL1       -0.0037
     19 C          66.2327   94.9476   11.4488 C.ar    1  UNL1       -0.0025
     20 C          65.8318   96.3465   11.0845 C.ar    1  UNL1       -0.0003
     21 C          66.0664   96.8555    9.6931 C.ar    1  UNL1       -0.0000
     22 C          66.7019   95.9658    8.6661 C.ar    1  UNL1       -0.0003
     23 C          67.1027   94.5671    9.0304 C.ar    1  UNL1       -0.0025
     24 C          62.5782   88.3281   11.9086 C.3     1  UNL1        0.1531
     25 N          63.1903   86.9912   12.2056 N.am    1  UNL1       -0.2979
     26 C          63.5892   86.6441   13.6093 C.2     1  UNL1        0.2299
     27 O          63.3759   87.6339   14.7161 O.2     1  UNL1       -0.2748
     28 H          63.3303   86.3416   11.4792 H       1  UNL1        0.1498
     29 C          64.2013   85.3073   13.9063 C.3     1  UNL1        0.1557
     30 C          65.1367   84.2794   14.4706 C.3     1  UNL1        0.0177
     31 C          65.3447   85.7324   14.7791 C.3     1  UNL1        0.0177
     32 C          63.2704   84.4178   13.1367 C.3     1  UNL1        0.4048
     33 F          62.3397   83.5283   12.3670 F       1  UNL1       -0.1695
     34 F          64.3737   84.0981   12.1720 F       1  UNL1       -0.1695
     35 F          62.1672   84.7376   14.1013 F       1  UNL1       -0.1695
     36 C          61.1207   88.4266   11.5679 C.3     1  UNL1        0.0599
     37 C          60.6435   88.0469   10.1975 C.ar    1  UNL1        0.0371
     38 C          60.6551   86.6088    9.7710 C.ar    1  UNL1        0.1385
     39 F          61.1439   85.5505   10.7150 F       1  UNL1       -0.2044
     40 C          60.1779   86.2290    8.4006 C.ar    1  UNL1        0.0318
     41 C          59.6890   87.2873    7.4567 C.ar    1  UNL1        0.0342
     42 C          59.6775   88.7254    7.8832 C.ar    1  UNL1        0.1672
     43 F          59.1886   89.7837    6.9392 F       1  UNL1       -0.2018
     44 C          60.1547   89.1052    9.2536 C.ar    1  UNL1        0.1656
     45 F          60.1431   90.5432    9.6800 F       1  UNL1       -0.2021
@<TRIPOS>BOND
     1     1     2    2
     2     2     3   am
     3     3     5    1
     4     5     6    1
     5     6     7   ar
     6     7     8   ar
     7     8     9   ar
     8     9    10   ar
     9    10    11   ar
    10    11    12   ar
    11    12    13   ar
    12    13    14   ar
    13    14    15    1
    14    15    18    1
    15    18    19   ar
    16    19    20   ar
    17    20    21   ar
    18    21    22   ar
    19    22    23   ar
    20    15    16    1
    21    16    17    1
    22     2    24    1
    23    24    36    1
    24    36    37    1
    25    37    38   ar
    26    38    39    1
    27    38    40   ar
    28    40    41   ar
    29    41    42   ar
    30    42    43    1
    31    42    44   ar
    32    44    45    1
    33    24    25    1
    34    25    26   am
    35    26    27    2
    36    26    29    1
    37    29    32    1
    38    32    33    1
    39    32    34    1
    40    32    35    1
    41    29    30    1
    42    30    31    1
    43    14     6   ar
    44    17    15    1
    45    44    37   ar
    46    31    29    1
    47    13     8   ar
    48    23    18   ar
    49     3     4    1
    50    25    28    1
@<TRIPOS>MOLECULE
*****
 45 50 0 0 0
SMALL
GASTEIGER

@<TRIPOS>ATOM
      1 O          62.6956   90.1869   13.1189 O.2     1  UNL1       -0.2733
      2 C          62.9524   89.5123   11.8040 C.2     1  UNL1        0.2410
      3 N          63.6679   90.2485   10.7104 N.am    1  UNL1       -0.2966
      4 H          63.8364   89.8057    9.8474 H       1  UNL1        0.1499
      5 C          64.1266   91.6594   10.9316 C.3     1  UNL1        0.1543
      6 C          65.0269   91.9829   12.0870 C.ar    1  UNL1        0.1417
      7 N          64.6613   91.9010   13.5395 N.ar    1  UNL1       -0.2276
      8 C          65.8592   92.3126   14.3429 C.ar    1  UNL1        0.1167
      9 C          66.0859   92.4246   15.8214 C.ar    1  UNL1        0.0238
     10 C          67.4185   92.8729   16.3441 C.ar    1  UNL1        0.0223
     11 C          68.5244   93.2091   15.3882 C.ar    1  UNL1        0.1006
     12 N          68.2978   93.0971   13.9096 N.ar    1  UNL1       -0.2252
     13 C          66.9652   92.6489   13.3870 C.ar    1  UNL1        0.1626
     14 N          66.4508   92.4451   11.9928 N.ar    1  UNL1       -0.2990
     15 C          67.2244   92.6650   10.7267 C.3     1  UNL1        0.0898
     16 C          68.1491   92.3997    9.5757 C.3     1  UNL1        0.0273
     17 C          67.9279   91.3445   10.6186 C.3     1  UNL1        0.0273
     18 C          66.7898   94.0617   10.3950 C.ar    1  UNL1       -0.0037
     19 C          67.0285   94.6152    9.0215 C.ar    1  UNL1       -0.0025
     20 C          66.5938   96.0121    8.6898 C.ar    1  UNL1       -0.0003
     21 C          65.9205   96.8553    9.7317 C.ar    1  UNL1       -0.0000
     22 C          65.6818   96.3018   11.1053 C.ar    1  UNL1       -0.0003
     23 C          66.1164   94.9050   11.4369 C.ar    1  UNL1       -0.0025
     24 C          62.4937   88.1013   11.5827 C.3     1  UNL1        0.1531
     25 N          62.2973   87.5867   10.1875 N.am    1  UNL1       -0.2979
     26 C          60.9144   87.3021    9.6808 C.2     1  UNL1        0.2299
     27 O          59.7280   87.5322   10.5693 O.2     1  UNL1       -0.2748
     28 H          63.0760   87.4357    9.6043 H       1  UNL1        0.1498
     29 C          60.7180   86.7874    8.2856 C.3     1  UNL1        0.1557
     30 C          60.9029   85.9560    7.0509 C.3     1  UNL1        0.0177
     31 C          61.7474   85.6967    8.2630 C.3     1  UNL1        0.0177
     32 C          59.6203   87.6994    7.8237 C.3     1  UNL1        0.4048
     33 F          58.5227   88.6114    7.3617 F       1  UNL1       -0.1695
     34 F          60.4965   88.8878    8.0881 F       1  UNL1       -0.1695
     35 F          58.7442   86.5109    7.5593 F       1  UNL1       -0.1695
     36 C          62.2314   87.2051   12.7565 C.3     1  UNL1        0.0599
     37 C          63.1940   86.1039   13.0893 C.ar    1  UNL1        0.0371
     38 C          64.2349   86.3124   14.1490 C.ar    1  UNL1        0.1385
     39 F          64.3132   87.6222   14.8760 F       1  UNL1       -0.2044
     40 C          65.1975   85.2112   14.4818 C.ar    1  UNL1        0.0318
     41 C          65.1192   83.9015   13.7548 C.ar    1  UNL1        0.0342
     42 C          64.0783   83.6930   12.6951 C.ar    1  UNL1        0.1672
     43 F          64.0000   82.3833   11.9681 F       1  UNL1       -0.2018
     44 C          63.1157   84.7942   12.3623 C.ar    1  UNL1        0.1656
     45 F          62.0748   84.5857   11.3026 F       1  UNL1       -0.2021
@<TRIPOS>BOND
     1     1     2    2
     2     2     3   am
     3     3     5    1
     4     5     6    1
     5     6     7   ar
     6     7     8   ar
     7     8     9   ar
     8     9    10   ar
     9    10    11   ar
    10    11    12   ar
    11    12    13   ar
    12    13    14   ar
    13    14    15    1
    14    15    18    1
    15    18    19   ar
    16    19    20   ar
    17    20    21   ar
    18    21    22   ar
    19    22    23   ar
    20    15    16    1
    21    16    17    1
    22     2    24    1
    23    24    36    1
    24    36    37    1
    25    37    38   ar
    26    38    39    1
    27    38    40   ar
    28    40    41   ar
    29    41    42   ar
    30    42    43    1
    31    42    44   ar
    32    44    45    1
    33    24    25    1
    34    25    26   am
    35    26    27    2
    36    26    29    1
    37    29    32    1
    38    32    33    1
    39    32    34    1
    40    32    35    1
    41    29    30    1
    42    30    31    1
    43    14     6   ar
    44    17    15    1
    45    44    37   ar
    46    31    29    1
    47    13     8   ar
    48    23    18   ar
    49     3     4    1
    50    25    28    1
@<TRIPOS>MOLECULE
*****
 45 50 0 0 0
SMALL
GASTEIGER

@<TRIPOS>ATOM
      1 O          63.8696   87.0185   15.4010 O.2     1  UNL1       -0.2733
      2 C          63.7906   86.9487   13.9047 C.2     1  UNL1        0.2410
      3 N          63.6784   88.2096   13.1000 N.am    1  UNL1       -0.2966
      4 H          63.6266   88.1638   12.1179 H       1  UNL1        0.1499
      5 C          63.6453   89.5403   13.7915 C.3     1  UNL1        0.1543
      6 C          64.2268   90.7491   13.1202 C.ar    1  UNL1        0.1417
      7 N          64.1650   91.0585   11.6538 N.ar    1  UNL1       -0.2276
      8 C          64.8723   92.3614   11.4247 C.ar    1  UNL1        0.1167
      9 C          65.1264   93.1603   10.1809 C.ar    1  UNL1        0.0238
     10 C          65.8795   94.4550   10.2620 C.ar    1  UNL1        0.0223
     11 C          66.3785   94.9507   11.5869 C.ar    1  UNL1        0.1006
     12 N          66.1243   94.1517   12.8307 N.ar    1  UNL1       -0.2252
     13 C          65.3712   92.8571   12.7496 C.ar    1  UNL1        0.1626
     14 N          64.9723   91.8606   13.7974 N.ar    1  UNL1       -0.2990
     15 C          65.2672   91.9586   15.2649 C.3     1  UNL1        0.0898
     16 C          65.0515   91.9539   16.7493 C.3     1  UNL1        0.0273
     17 C          63.8997   91.6972   15.8234 C.3     1  UNL1        0.0273
     18 C          66.7370   92.2540   15.2161 C.ar    1  UNL1       -0.0037
     19 C          67.3214   93.3023   16.1157 C.ar    1  UNL1       -0.0025
     20 C          68.7913   93.5978   16.0670 C.ar    1  UNL1       -0.0003
     21 C          69.6766   92.8448   15.1186 C.ar    1  UNL1       -0.0000
     22 C          69.0920   91.7963   14.2191 C.ar    1  UNL1       -0.0003
     23 C          67.6222   91.5009   14.2678 C.ar    1  UNL1       -0.0025
     24 C          63.8237   85.6180   13.2132 C.3     1  UNL1        0.1531
     25 N          63.6757   85.5437   11.7223 N.am    1  UNL1       -0.2979
     26 C          62.3775   85.9294   11.0774 C.2     1  UNL1        0.2299
     27 O          61.2273   86.3894   11.9232 O.2     1  UNL1       -0.2748
     28 H          64.4307   85.2419   11.1672 H       1  UNL1        0.1498
     29 C          62.2295   85.8551    9.5865 C.3     1  UNL1        0.1557
     30 C          62.4006   85.3767    8.1752 C.3     1  UNL1        0.0177
     31 C          63.0967   84.6658    9.2976 C.3     1  UNL1        0.0177
     32 C          61.3110   87.0187    9.3576 C.3     1  UNL1        0.4048
     33 F          60.3924   88.1821    9.1287 F       1  UNL1       -0.1695
     34 F          60.2038   86.0734    8.9964 F       1  UNL1       -0.1695
     35 F          62.4183   87.9639    9.7188 F       1  UNL1       -0.1695
     36 C          64.0048   84.3617   14.0124 C.3     1  UNL1        0.0599
     37 C          63.3745   83.0814   13.5503 C.ar    1  UNL1        0.0371
     38 C          63.9164   82.3708   12.3455 C.ar    1  UNL1        0.1385
     39 F          65.0885   82.9406   11.6028 F       1  UNL1       -0.2044
     40 C          63.2861   81.0905   11.8834 C.ar    1  UNL1        0.0318
     41 C          62.1141   80.5208   12.6260 C.ar    1  UNL1        0.0342
     42 C          61.5722   81.2313   13.8308 C.ar    1  UNL1        0.1672
     43 F          60.4001   80.6615   14.5735 F       1  UNL1       -0.2018
     44 C          62.2025   82.5116   14.2930 C.ar    1  UNL1        0.1656
     45 F          61.6606   83.2222   15.4978 F       1  UNL1       -0.2021
@<TRIPOS>BOND
     1     1     2    2
     2     2     3   am
     3     3     5    1
     4     5     6    1
     5     6     7   ar
     6     7     8   ar
     7     8     9   ar
     8     9    10   ar
     9    10    11   ar
    10    11    12   ar
    11    12    13   ar
    12    13    14   ar
    13    14    15    1
    14    15    18    1
    15    18    19   ar
    16    19    20   ar
    17    20    21   ar
    18    21    22   ar
    19    22    23   ar
    20    15    16    1
    21    16    17    1
    22     2    24    1
    23    24    36    1
    24    36    37    1
    25    37    38   ar
    26    38    39    1
    27    38    40   ar
    28    40    41   ar
    29    41    42   ar
    30    42    43    1
    31    42    44   ar
    32    44    45    1
    33    24    25    1
    34    25    26   am
    35    26    27    2
    36    26    29    1
    37    29    32    1
    38    32    33    1
    39    32    34    1
    40    32    35    1
    41    29    30    1
    42    30    31    1
    43    14     6   ar
    44    17    15    1
    45    44    37   ar
    46    31    29    1
    47    13     8   ar
    48    23    18   ar
    49     3     4    1
    50    25    28    1
@<TRIPOS>MOLECULE
*****
 45 50 0 0 0
SMALL
GASTEIGER

@<TRIPOS>ATOM
      1 O          61.6197   88.7636   12.2591 O.2     1  UNL1       -0.2733
      2 C          62.6916   87.7696   12.5951 C.2     1  UNL1        0.2410
      3 N          63.7806   88.1380   13.5587 N.am    1  UNL1       -0.2966
      4 H          64.4842   87.4856   13.7792 H       1  UNL1        0.1499
      5 C          63.7976   89.5002   14.1863 C.3     1  UNL1        0.1543
      6 C          64.3154   90.6762   13.4123 C.ar    1  UNL1        0.1417
      7 N          64.1930   90.8799   11.9312 N.ar    1  UNL1       -0.2276
      8 C          64.8484   92.1845   11.5870 C.ar    1  UNL1        0.1167
      9 C          65.0330   92.9016   10.2826 C.ar    1  UNL1        0.0238
     10 C          65.7452   94.2212   10.2465 C.ar    1  UNL1        0.0223
     11 C          66.2727   94.8238   11.5148 C.ar    1  UNL1        0.1006
     12 N          66.0881   94.1067   12.8192 N.ar    1  UNL1       -0.2252
     13 C          65.3759   92.7871   12.8554 C.ar    1  UNL1        0.1626
     14 N          65.0465   91.8548   13.9834 N.ar    1  UNL1       -0.2990
     15 C          65.3883   92.0645   15.4288 C.3     1  UNL1        0.0898
     16 C          65.2204   92.1737   16.9154 C.3     1  UNL1        0.0273
     17 C          64.0398   91.8480   16.0494 C.3     1  UNL1        0.0273
     18 C          66.8553   92.3539   15.3103 C.ar    1  UNL1       -0.0037
     19 C          67.7020   91.5596   14.3606 C.ar    1  UNL1       -0.0025
     20 C          69.1691   91.8489   14.2421 C.ar    1  UNL1       -0.0003
     21 C          69.7893   92.9326   15.0734 C.ar    1  UNL1       -0.0000
     22 C          68.9425   93.7270   16.0231 C.ar    1  UNL1       -0.0003
     23 C          67.4755   93.4376   16.1416 C.ar    1  UNL1       -0.0025
     24 C          62.6747   86.4073   11.9676 C.3     1  UNL1        0.1531
     25 N          61.6980   86.0984   10.8718 N.am    1  UNL1       -0.2979
     26 C          61.7120   86.9030    9.6059 C.2     1  UNL1        0.2299
     27 O          62.7026   88.0164    9.4357 O.2     1  UNL1       -0.2748
     28 H          61.0477   85.3677   10.9835 H       1  UNL1        0.1498
     29 C          60.7353   86.5942    8.5101 C.3     1  UNL1        0.1557
     30 C          59.4845   86.6375    7.6833 C.3     1  UNL1        0.0177
     31 C          59.6070   87.5008    8.9037 C.3     1  UNL1        0.0177
     32 C          61.5243   85.5802    7.7359 C.3     1  UNL1        0.4048
     33 F          62.3133   84.5663    6.9618 F       1  UNL1       -0.1695
     34 F          60.2750   85.1506    7.0255 F       1  UNL1       -0.1695
     35 F          62.7735   86.0100    8.4464 F       1  UNL1       -0.1695
     36 C          63.6344   85.3539   12.4357 C.3     1  UNL1        0.0599
     37 C          63.2140   83.9142   12.4611 C.ar    1  UNL1        0.0371
     38 C          62.5829   83.3388   13.6943 C.ar    1  UNL1        0.1385
     39 F          62.3722   84.2031   14.9020 F       1  UNL1       -0.2044
     40 C          62.1625   81.8991   13.7197 C.ar    1  UNL1        0.0318
     41 C          62.3731   81.0349   12.5120 C.ar    1  UNL1        0.0342
     42 C          63.0042   81.6103   11.2788 C.ar    1  UNL1        0.1672
     43 F          63.2149   80.7460   10.0710 F       1  UNL1       -0.2018
     44 C          63.4246   83.0499   11.2534 C.ar    1  UNL1        0.1656
     45 F          64.0557   83.6253   10.0202 F       1  UNL1       -0.2021
@<TRIPOS>BOND
     1     1     2    2
     2     2     3   am
     3     3     5    1
     4     5     6    1
     5     6     7   ar
     6     7     8   ar
     7     8     9   ar
     8     9    10   ar
     9    10    11   ar
    10    11    12   ar
    11    12    13   ar
    12    13    14   ar
    13    14    15    1
    14    15    18    1
    15    18    19   ar
    16    19    20   ar
    17    20    21   ar
    18    21    22   ar
    19    22    23   ar
    20    15    16    1
    21    16    17    1
    22     2    24    1
    23    24    36    1
    24    36    37    1
    25    37    38   ar
    26    38    39    1
    27    38    40   ar
    28    40    41   ar
    29    41    42   ar
    30    42    43    1
    31    42    44   ar
    32    44    45    1
    33    24    25    1
    34    25    26   am
    35    26    27    2
    36    26    29    1
    37    29    32    1
    38    32    33    1
    39    32    34    1
    40    32    35    1
    41    29    30    1
    42    30    31    1
    43    14     6   ar
    44    17    15    1
    45    44    37   ar
    46    31    29    1
    47    13     8   ar
    48    23    18   ar
    49     3     4    1
    50    25    28    1
@<TRIPOS>MOLECULE
*****
 45 50 0 0 0
SMALL
GASTEIGER

@<TRIPOS>ATOM
      1 O          63.6116   91.8243   10.3429 O.2     1  UNL1       -0.2733
      2 C          64.2858   91.5387   11.6520 C.2     1  UNL1        0.2410
      3 N          63.9160   90.3137   12.4346 N.am    1  UNL1       -0.2966
      4 H          64.3586   90.1262   13.2939 H       1  UNL1        0.1499
      5 C          62.8719   89.3742   11.9081 C.3     1  UNL1        0.1543
      6 C          62.9785   87.9036   12.1842 C.ar    1  UNL1        0.1417
      7 N          63.7446   87.2707   13.3077 N.ar    1  UNL1       -0.2276
      8 C          63.5772   85.7837   13.2030 C.ar    1  UNL1        0.1167
      9 C          64.1043   84.6532   14.0362 C.ar    1  UNL1        0.0238
     10 C          63.7618   83.2367   13.6811 C.ar    1  UNL1        0.0223
     11 C          62.8921   82.9507   12.4929 C.ar    1  UNL1        0.1006
     12 N          62.3651   84.0812   11.6597 N.ar    1  UNL1       -0.2252
     13 C          62.7076   85.4977   12.0148 C.ar    1  UNL1        0.1626
     14 N          62.3376   86.8079   11.3851 N.ar    1  UNL1       -0.2990
     15 C          61.4776   86.9902   10.1697 C.3     1  UNL1        0.0898
     16 C          60.9072   86.7678    8.8003 C.3     1  UNL1        0.0273
     17 C          62.0127   85.8881    9.3042 C.3     1  UNL1        0.0273
     18 C          60.6438   88.1556   10.6130 C.ar    1  UNL1       -0.0037
     19 C          60.6632   89.4334    9.8278 C.ar    1  UNL1       -0.0025
     20 C          59.8293   90.5989   10.2711 C.ar    1  UNL1       -0.0003
     21 C          58.9762   90.4864   11.4997 C.ar    1  UNL1       -0.0000
     22 C          58.9568   89.2085   12.2850 C.ar    1  UNL1       -0.0003
     23 C          59.7906   88.0431   11.8416 C.ar    1  UNL1       -0.0025
     24 C          65.3299   92.4782   12.1786 C.3     1  UNL1        0.1531
     25 N          66.2104   92.0585   13.3181 N.am    1  UNL1       -0.2979
     26 C          66.8362   93.0950   14.2037 C.2     1  UNL1        0.2299
     27 O          66.5814   94.5512   13.9497 O.2     1  UNL1       -0.2748
     28 H          66.3776   91.1027   13.4848 H       1  UNL1        0.1498
     29 C          67.7167   92.6752   15.3432 C.3     1  UNL1        0.1557
     30 C          68.1362   92.2701   16.7252 C.3     1  UNL1        0.0177
     31 C          66.6954   92.5715   16.4370 C.3     1  UNL1        0.0177
     32 C          69.0437   92.6332   14.6452 C.3     1  UNL1        0.4048
     33 F          70.3707   92.5911   13.9472 F       1  UNL1       -0.1695
     34 F          68.5686   91.4804   13.8115 F       1  UNL1       -0.1695
     35 F          69.5188   93.7860   15.4791 F       1  UNL1       -0.1695
     36 C          65.4935   93.8374   11.5656 C.3     1  UNL1        0.0599
     37 C          66.3608   94.0146   10.3546 C.ar    1  UNL1        0.0371
     38 C          66.1946   95.2245    9.4836 C.ar    1  UNL1        0.1385
     39 F          65.1611   96.2571    9.8236 F       1  UNL1       -0.2044
     40 C          67.0618   95.4017    8.2726 C.ar    1  UNL1        0.0318
     41 C          68.0952   94.3690    7.9326 C.ar    1  UNL1        0.0342
     42 C          68.2614   93.1592    8.8036 C.ar    1  UNL1        0.1672
     43 F          69.2949   92.1265    8.4636 F       1  UNL1       -0.2018
     44 C          67.3942   92.9820   10.0146 C.ar    1  UNL1        0.1656
     45 F          67.5604   91.7721   10.8856 F       1  UNL1       -0.2021
@<TRIPOS>BOND
     1     1     2    2
     2     2     3   am
     3     3     5    1
     4     5     6    1
     5     6     7   ar
     6     7     8   ar
     7     8     9   ar
     8     9    10   ar
     9    10    11   ar
    10    11    12   ar
    11    12    13   ar
    12    13    14   ar
    13    14    15    1
    14    15    18    1
    15    18    19   ar
    16    19    20   ar
    17    20    21   ar
    18    21    22   ar
    19    22    23   ar
    20    15    16    1
    21    16    17    1
    22     2    24    1
    23    24    36    1
    24    36    37    1
    25    37    38   ar
    26    38    39    1
    27    38    40   ar
    28    40    41   ar
    29    41    42   ar
    30    42    43    1
    31    42    44   ar
    32    44    45    1
    33    24    25    1
    34    25    26   am
    35    26    27    2
    36    26    29    1
    37    29    32    1
    38    32    33    1
    39    32    34    1
    40    32    35    1
    41    29    30    1
    42    30    31    1
    43    14     6   ar
    44    17    15    1
    45    44    37   ar
    46    31    29    1
    47    13     8   ar
    48    23    18   ar
    49     3     4    1
    50    25    28    1
@<TRIPOS>MOLECULE
*****
 45 50 0 0 0
SMALL
GASTEIGER

@<TRIPOS>ATOM
      1 O          63.2950   91.3592   10.0493 O.2     1  UNL1       -0.2733
      2 C          63.9475   91.2100   11.3917 C.2     1  UNL1        0.2410
      3 N          63.4868   90.1383   12.3346 N.am    1  UNL1       -0.2966
      4 H          63.9151   90.0404   13.2156 H       1  UNL1        0.1499
      5 C          62.3736   89.2158   11.9352 C.3     1  UNL1        0.1543
      6 C          62.5634   87.7303   12.0204 C.ar    1  UNL1        0.1417
      7 N          63.4947   87.0124   12.9518 N.ar    1  UNL1       -0.2276
      8 C          63.3622   85.5403   12.6963 C.ar    1  UNL1        0.1167
      9 C          64.0332   84.3498   13.3147 C.ar    1  UNL1        0.0238
     10 C          63.6910   82.9674   12.8439 C.ar    1  UNL1        0.0223
     11 C          62.6778   82.7754   11.7546 C.ar    1  UNL1        0.1006
     12 N          62.0068   83.9659   11.1361 N.ar    1  UNL1       -0.2252
     13 C          62.3490   85.3483   11.6070 C.ar    1  UNL1        0.1626
     14 N          61.8553   86.7018   11.1893 N.ar    1  UNL1       -0.2990
     15 C          60.8330   86.9782   10.1270 C.3     1  UNL1        0.0898
     16 C          59.6045   87.5230    9.4607 C.3     1  UNL1        0.0273
     17 C          59.8841   87.8471   10.8983 C.3     1  UNL1        0.0273
     18 C          61.4268   86.2054    8.9867 C.ar    1  UNL1       -0.0037
     19 C          62.9030   85.9427    8.9470 C.ar    1  UNL1       -0.0025
     20 C          63.4968   85.1698    7.8066 C.ar    1  UNL1       -0.0003
     21 C          62.6142   84.6598    6.7062 C.ar    1  UNL1       -0.0000
     22 C          61.1379   84.9226    6.7460 C.ar    1  UNL1       -0.0003
     23 C          60.5442   85.6954    7.8863 C.ar    1  UNL1       -0.0025
     24 C          65.0609   92.1326   11.7911 C.3     1  UNL1        0.1531
     25 N          66.2124   92.3660   10.8587 N.am    1  UNL1       -0.2979
     26 C          66.3679   93.6929   10.1765 C.2     1  UNL1        0.2299
     27 O          65.3719   94.7862   10.4267 O.2     1  UNL1       -0.2748
     28 H          66.8662   91.6485   10.6945 H       1  UNL1        0.1498
     29 C          67.5195   93.9264    9.2441 C.3     1  UNL1        0.1557
     30 C          68.7625   93.6649    8.4462 C.3     1  UNL1        0.0177
     31 C          68.1828   92.5825    9.3076 C.3     1  UNL1        0.0177
     32 C          67.2562   95.3514    8.8566 C.3     1  UNL1        0.4048
     33 F          66.9928   96.7763    8.4691 F       1  UNL1       -0.1695
     34 F          66.7248   94.8926    7.5310 F       1  UNL1       -0.1695
     35 F          67.7875   95.8100   10.1822 F       1  UNL1       -0.1695
     36 C          65.0226   92.8216   13.1229 C.3     1  UNL1        0.0599
     37 C          66.1651   92.6639   14.0821 C.ar    1  UNL1        0.0371
     38 C          66.4836   91.3141   14.6537 C.ar    1  UNL1        0.1385
     39 F          65.6596   90.1221   14.2662 F       1  UNL1       -0.2044
     40 C          67.6260   91.1564   15.6128 C.ar    1  UNL1        0.0318
     41 C          68.4500   92.3484   16.0003 C.ar    1  UNL1        0.0342
     42 C          68.1315   93.6981   15.4286 C.ar    1  UNL1        0.1672
     43 F          68.9556   94.8902   15.8161 F       1  UNL1       -0.2018
     44 C          66.9891   93.8559   14.4695 C.ar    1  UNL1        0.1656
     45 F          66.6706   95.2056   13.8979 F       1  UNL1       -0.2021
@<TRIPOS>BOND
     1     1     2    2
     2     2     3   am
     3     3     5    1
     4     5     6    1
     5     6     7   ar
     6     7     8   ar
     7     8     9   ar
     8     9    10   ar
     9    10    11   ar
    10    11    12   ar
    11    12    13   ar
    12    13    14   ar
    13    14    15    1
    14    15    18    1
    15    18    19   ar
    16    19    20   ar
    17    20    21   ar
    18    21    22   ar
    19    22    23   ar
    20    15    16    1
    21    16    17    1
    22     2    24    1
    23    24    36    1
    24    36    37    1
    25    37    38   ar
    26    38    39    1
    27    38    40   ar
    28    40    41   ar
    29    41    42   ar
    30    42    43    1
    31    42    44   ar
    32    44    45    1
    33    24    25    1
    34    25    26   am
    35    26    27    2
    36    26    29    1
    37    29    32    1
    38    32    33    1
    39    32    34    1
    40    32    35    1
    41    29    30    1
    42    30    31    1
    43    14     6   ar
    44    17    15    1
    45    44    37   ar
    46    31    29    1
    47    13     8   ar
    48    23    18   ar
    49     3     4    1
    50    25    28    1
@<TRIPOS>MOLECULE
*****
 45 50 0 0 0
SMALL
GASTEIGER

@<TRIPOS>ATOM
      1 O          60.7556   87.6918   11.7544 O.2     1  UNL1       -0.2733
      2 C          62.1531   87.1904   11.9676 C.2     1  UNL1        0.2410
      3 N          63.1876   88.0894   12.5773 N.am    1  UNL1       -0.2966
      4 H          64.1048   87.7603   12.7173 H       1  UNL1        0.1499
      5 C          62.8245   89.4897   12.9737 C.3     1  UNL1        0.1543
      6 C          63.8901   90.4380   13.4376 C.ar    1  UNL1        0.1417
      7 N          64.5024   90.4751   14.8065 N.ar    1  UNL1       -0.2276
      8 C          65.5212   91.5757   14.8290 C.ar    1  UNL1        0.1167
      9 C          66.4353   92.0754   15.9082 C.ar    1  UNL1        0.0238
     10 C          67.3668   93.2182   15.6324 C.ar    1  UNL1        0.0223
     11 C          67.3843   93.8614   14.2774 C.ar    1  UNL1        0.1006
     12 N          66.4702   93.3618   13.1982 N.ar    1  UNL1       -0.2252
     13 C          65.5387   92.2190   13.4740 C.ar    1  UNL1        0.1626
     14 N          64.5306   91.5158   12.6141 N.ar    1  UNL1       -0.2990
     15 C          64.2179   91.8345   11.1821 C.3     1  UNL1        0.0898
     16 C          63.4589   91.9246    9.8914 C.3     1  UNL1        0.0273
     17 C          62.8243   91.2868   11.0916 C.3     1  UNL1        0.0273
     18 C          65.5028   92.4929   10.7752 C.ar    1  UNL1       -0.0037
     19 C          66.7520   91.6752   10.6323 C.ar    1  UNL1       -0.0025
     20 C          68.0370   92.3336   10.2254 C.ar    1  UNL1       -0.0003
     21 C          68.0725   93.8098    9.9614 C.ar    1  UNL1       -0.0000
     22 C          66.8231   94.6275   10.1044 C.ar    1  UNL1       -0.0003
     23 C          65.5383   93.9691   10.5113 C.ar    1  UNL1       -0.0025
     24 C          62.5162   85.7900   11.5712 C.3     1  UNL1        0.1531
     25 N          62.0469   85.2366   10.2584 N.am    1  UNL1       -0.2979
     26 C          62.1784   86.0563    9.0090 C.2     1  UNL1        0.2299
     27 O          62.7791   87.4292    9.0724 O.2     1  UNL1       -0.2748
     28 H          61.6527   84.3355   10.2167 H       1  UNL1        0.1498
     29 C          61.7091   85.5029    7.6961 C.3     1  UNL1        0.1557
     30 C          61.7311   84.7758    6.3843 C.3     1  UNL1        0.0177
     31 C          62.9603   84.8104    7.2431 C.3     1  UNL1        0.0177
     32 C          60.2950   86.0032    7.6931 C.3     1  UNL1        0.4048
     33 F          58.8809   86.5034    7.6900 F       1  UNL1       -0.1695
     34 F          59.8622   84.7749    6.9488 F       1  UNL1       -0.1695
     35 F          60.7279   87.2314    8.4374 F       1  UNL1       -0.1695
     36 C          63.3485   84.9430   12.4876 C.3     1  UNL1        0.0599
     37 C          62.9261   83.5381   12.8006 C.ar    1  UNL1        0.0371
     38 C          62.2682   83.2274   14.1123 C.ar    1  UNL1        0.1385
     39 F          62.0329   84.3215   15.1111 F       1  UNL1       -0.2044
     40 C          61.8458   81.8226   14.4253 C.ar    1  UNL1        0.0318
     41 C          62.0811   80.7285   13.4265 C.ar    1  UNL1        0.0342
     42 C          62.7389   81.0393   12.1147 C.ar    1  UNL1        0.1672
     43 F          62.9743   79.9451   11.1159 F       1  UNL1       -0.2018
     44 C          63.1614   82.4441   11.8018 C.ar    1  UNL1        0.1656
     45 F          63.8192   82.7548   10.4900 F       1  UNL1       -0.2021
@<TRIPOS>BOND
     1     1     2    2
     2     2     3   am
     3     3     5    1
     4     5     6    1
     5     6     7   ar
     6     7     8   ar
     7     8     9   ar
     8     9    10   ar
     9    10    11   ar
    10    11    12   ar
    11    12    13   ar
    12    13    14   ar
    13    14    15    1
    14    15    18    1
    15    18    19   ar
    16    19    20   ar
    17    20    21   ar
    18    21    22   ar
    19    22    23   ar
    20    15    16    1
    21    16    17    1
    22     2    24    1
    23    24    36    1
    24    36    37    1
    25    37    38   ar
    26    38    39    1
    27    38    40   ar
    28    40    41   ar
    29    41    42   ar
    30    42    43    1
    31    42    44   ar
    32    44    45    1
    33    24    25    1
    34    25    26   am
    35    26    27    2
    36    26    29    1
    37    29    32    1
    38    32    33    1
    39    32    34    1
    40    32    35    1
    41    29    30    1
    42    30    31    1
    43    14     6   ar
    44    17    15    1
    45    44    37   ar
    46    31    29    1
    47    13     8   ar
    48    23    18   ar
    49     3     4    1
    50    25    28    1
