@<TRIPOS>MOLECULE
*****
 37 40 0 0 0
SMALL
GASTEIGER

@<TRIPOS>ATOM
      1 C          62.9305   84.8686   12.9166 C.3     1  UNL1        0.1338
      2 C          62.5814   83.5891   13.6174 C.2     1  UNL1        0.0732
      3 C          62.7944   83.7932   15.0881 C.2     1  UNL1        0.1887
      4 O          62.5666   82.7711   16.1622 O.2     1  UNL1       -0.5020
      5 C          63.2751   85.1988   15.2963 C.2     1  UNL1        0.2869
      6 O          63.6124   85.8290   16.6150 O.2     1  UNL1       -0.2662
      7 N          63.3592   85.8634   13.9542 N.am    1  UNL1       -0.2463
      8 H          62.2635   81.9137   15.9363 H       1  UNL1        0.2924
      9 C          61.8469   86.0627   10.8795 C.ar    1  UNL1        0.1365
     10 C          61.7791   86.3049    9.4007 C.ar    1  UNL1        0.0366
     11 C          62.7273   85.5952    8.4803 C.ar    1  UNL1        0.0031
     12 C          63.7432   84.6432    9.0387 C.ar    1  UNL1       -0.0001
     13 C          63.8110   84.4010   10.5174 C.ar    1  UNL1        0.0007
     14 C          62.8628   85.1108   11.4378 C.ar    1  UNL1        0.0344
     15 O          60.8986   86.7724   11.8000 O.3     1  UNL1       -0.4742
     16 C          59.8904   87.7331   11.2428 C.3     1  UNL1        0.2226
     17 C          60.2275   89.1900   11.1255 C.3     1  UNL1        0.1201
     18 C          61.9760   90.6426    9.8674 C.3     1  UNL1        0.0898
     19 N          60.7861   89.7296    9.8422 N.3     1  UNL1       -0.2672
     20 C          60.1549   89.3562    8.5338 C.3     1  UNL1        0.0898
     21 C          63.7954   87.2750   13.6952 C.ar    1  UNL1        0.0548
     22 C          63.3689   87.9731   12.4380 C.ar    1  UNL1        0.0149
     23 C          63.8052   89.3847   12.1790 C.ar    1  UNL1        0.0013
     24 C          64.6680   90.0982   13.1773 C.ar    1  UNL1        0.0006
     25 C          65.0945   89.4001   14.4346 C.ar    1  UNL1        0.0013
     26 C          64.6582   87.9885   14.6935 C.ar    1  UNL1        0.0149
     27 C          65.1042   91.5098   12.9183 C.ar    1  UNL1        0.0070
     28 C          64.8803   92.2837   11.6530 C.ar    1  UNL1        0.0075
     29 C          65.4786   93.6475   11.8318 C.ar    1  UNL1        0.0355
     30 S          66.0724   93.7165   13.2076 S.2     1  UNL1       -0.0859
     31 C          65.8409   92.3952   13.8790 C.ar    1  UNL1        0.0354
     32 C          62.1033   82.3272   12.9625 C.2     1  UNL1        0.1732
     33 O          61.4242   82.0590   11.8270 O.2     1  UNL1       -0.2915
     34 C          62.3728   80.9995   13.6063 C.3     1  UNL1        0.0554
     35 C          60.9239   80.8849   13.9768 C.3     1  UNL1        0.0077
     36 C          63.8218   81.1140   13.2357 C.3     1  UNL1        0.0077
     37 C          62.6424   79.6717   14.2500 C.3     1  UNL1        0.0077
@<TRIPOS>BOND
     1    18    19    1
     2    19    20    1
     3    19    17    1
     4    17    16    1
     5    16    15    1
     6    15     9    1
     7     9    10   ar
     8    10    11   ar
     9    11    12   ar
    10    12    13   ar
    11    13    14   ar
    12    14     1    1
    13     1     2    1
    14     2    32    1
    15    32    33    2
    16    32    34    1
    17    34    35    1
    18    34    36    1
    19    34    37    1
    20     2     3    2
    21     3     4    1
    22     3     5    1
    23     5     6    2
    24     5     7   am
    25     7    21    1
    26    21    22   ar
    27    22    23   ar
    28    23    24   ar
    29    24    27    1
    30    27    28   ar
    31    28    29   ar
    32    29    30   ar
    33    30    31   ar
    34    24    25   ar
    35    25    26   ar
    36    14     9   ar
    37     7     1    1
    38    26    21   ar
    39    31    27   ar
    40     4     8    1
@<TRIPOS>MOLECULE
*****
 37 40 0 0 0
SMALL
GASTEIGER

@<TRIPOS>ATOM
      1 C          62.1484   95.6287   -1.6361 C.3     1  UNL1        0.1338
      2 C          63.6234   95.5121   -1.8825 C.2     1  UNL1        0.0732
      3 C          63.8513   95.5626   -3.3642 C.2     1  UNL1        0.1887
      4 O          65.1801   95.4799   -4.0553 O.2     1  UNL1       -0.5020
      5 C          62.5171   95.7103   -4.0337 C.2     1  UNL1        0.2869
      6 O          62.2774   95.8013   -5.5116 O.2     1  UNL1       -0.2662
      7 N          61.4646   95.7512   -2.9656 N.am    1  UNL1       -0.2463
      8 H          65.9650   95.3878   -3.5519 H       1  UNL1        0.2924
      9 C          60.7765   94.3876    0.1880 C.ar    1  UNL1        0.1365
     10 C          60.1033   94.3825    1.5285 C.ar    1  UNL1        0.0366
     11 C          60.1290   95.6134    2.3853 C.ar    1  UNL1        0.0031
     12 C          60.8278   96.8494    1.9016 C.ar    1  UNL1       -0.0001
     13 C          61.5009   96.8545    0.5612 C.ar    1  UNL1        0.0007
     14 C          61.4753   95.6236   -0.2956 C.ar    1  UNL1        0.0344
     15 O          60.7508   93.1566   -0.6688 O.3     1  UNL1       -0.4742
     16 C          59.4474   92.4756   -0.9645 C.3     1  UNL1        0.2226
     17 C          58.2320   93.2917   -1.2912 C.3     1  UNL1        0.1201
     18 C          57.6288   91.9231   -3.4157 C.3     1  UNL1        0.0898
     19 N          57.2038   92.7575   -2.2438 N.3     1  UNL1       -0.2672
     20 C          55.7506   93.0576   -2.0246 C.3     1  UNL1        0.0898
     21 C          59.9878   95.8901   -3.1880 C.ar    1  UNL1        0.0548
     22 C          59.3398   95.2193   -4.3628 C.ar    1  UNL1        0.0149
     23 C          57.8629   95.3583   -4.5852 C.ar    1  UNL1        0.0013
     24 C          57.0339   96.1680   -3.6328 C.ar    1  UNL1        0.0006
     25 C          57.6819   96.8389   -2.4579 C.ar    1  UNL1        0.0013
     26 C          59.1588   96.6999   -2.2356 C.ar    1  UNL1        0.0149
     27 C          55.5570   96.3070   -3.8552 C.ar    1  UNL1        0.0070
     28 C          54.5172   96.4802   -2.7881 C.ar    1  UNL1        0.0075
     29 C          53.1782   96.5774   -3.4571 C.ar    1  UNL1        0.0355
     30 S          53.3904   96.4641   -4.9377 S.2     1  UNL1       -0.0859
     31 C          54.8607   96.2970   -5.1836 C.ar    1  UNL1        0.0354
     32 C          64.6843   95.3701   -0.8317 C.2     1  UNL1        0.1732
     33 O          65.8826   95.9562   -0.6235 O.2     1  UNL1       -0.2915
     34 C          64.4994   94.3963    0.2941 C.3     1  UNL1        0.0554
     35 C          64.2794   93.2921   -0.6970 C.3     1  UNL1        0.0077
     36 C          64.7193   95.5005    1.2853 C.3     1  UNL1        0.0077
     37 C          64.3144   93.4226    1.4200 C.3     1  UNL1        0.0077
@<TRIPOS>BOND
     1    18    19    1
     2    19    20    1
     3    19    17    1
     4    17    16    1
     5    16    15    1
     6    15     9    1
     7     9    10   ar
     8    10    11   ar
     9    11    12   ar
    10    12    13   ar
    11    13    14   ar
    12    14     1    1
    13     1     2    1
    14     2    32    1
    15    32    33    2
    16    32    34    1
    17    34    35    1
    18    34    36    1
    19    34    37    1
    20     2     3    2
    21     3     4    1
    22     3     5    1
    23     5     6    2
    24     5     7   am
    25     7    21    1
    26    21    22   ar
    27    22    23   ar
    28    23    24   ar
    29    24    27    1
    30    27    28   ar
    31    28    29   ar
    32    29    30   ar
    33    30    31   ar
    34    24    25   ar
    35    25    26   ar
    36    14     9   ar
    37     7     1    1
    38    26    21   ar
    39    31    27   ar
    40     4     8    1
@<TRIPOS>MOLECULE
*****
 37 40 0 0 0
SMALL
GASTEIGER

@<TRIPOS>ATOM
      1 C          61.9728   94.6723   -1.7609 C.3     1  UNL1        0.1338
      2 C          63.4106   94.2718   -1.9106 C.2     1  UNL1        0.0732
      3 C          63.6468   93.9218   -3.3499 C.2     1  UNL1        0.1887
      4 O          64.9467   93.4674   -3.9449 O.2     1  UNL1       -0.5020
      5 C          62.3550   94.1059   -4.0898 C.2     1  UNL1        0.2869
      6 O          62.1363   93.8680   -5.5546 O.2     1  UNL1       -0.2662
      7 N          61.3205   94.5698   -3.1078 N.am    1  UNL1       -0.2463
      8 H          65.7056   93.3809   -3.4021 H       1  UNL1        0.2924
      9 C          60.2940   94.2054    0.1661 C.ar    1  UNL1        0.1365
     10 C          59.6258   94.6333    1.4391 C.ar    1  UNL1        0.0366
     11 C          59.9684   95.9560    2.0580 C.ar    1  UNL1        0.0031
     12 C          60.9791   96.8508    1.4040 C.ar    1  UNL1       -0.0001
     13 C          61.6472   96.4229    0.1310 C.ar    1  UNL1        0.0007
     14 C          61.3047   95.1003   -0.4879 C.ar    1  UNL1        0.0344
     15 O          59.9514   92.8827   -0.4529 O.3     1  UNL1       -0.4742
     16 C          60.5609   91.6223    0.0858 C.3     1  UNL1        0.2226
     17 C          61.9488   91.6437    0.6542 C.3     1  UNL1        0.1201
     18 C          60.9917   92.2270    2.9981 C.3     1  UNL1        0.0898
     19 N          62.1538   91.8570    2.1247 N.3     1  UNL1       -0.2672
     20 C          63.5208   91.7004    2.7219 C.3     1  UNL1        0.0898
     21 C          59.8855   94.8771   -3.4181 C.ar    1  UNL1        0.0548
     22 C          59.3627   96.2723   -3.2445 C.ar    1  UNL1        0.0149
     23 C          57.9277   96.5796   -3.5547 C.ar    1  UNL1        0.0013
     24 C          57.0154   95.4918   -4.0387 C.ar    1  UNL1        0.0006
     25 C          57.5381   94.0965   -4.2123 C.ar    1  UNL1        0.0013
     26 C          58.9731   93.7892   -3.9020 C.ar    1  UNL1        0.0149
     27 C          55.5804   95.7991   -4.3490 C.ar    1  UNL1        0.0070
     28 C          54.9199   95.6651   -5.6890 C.ar    1  UNL1        0.0075
     29 C          53.4853   96.0776   -5.5420 C.ar    1  UNL1        0.0355
     30 S          53.2591   96.4665   -4.1110 S.2     1  UNL1       -0.0859
     31 C          54.5540   96.2944   -3.3737 C.ar    1  UNL1        0.0354
     32 C          64.4327   94.2289   -0.8136 C.2     1  UNL1        0.1732
     33 O          65.0554   93.2314   -0.1504 O.2     1  UNL1       -0.2915
     34 C          64.9658   95.5059   -0.2347 C.3     1  UNL1        0.0554
     35 C          64.7804   94.9563    1.1485 C.3     1  UNL1        0.0077
     36 C          65.1513   96.0555   -1.6181 C.3     1  UNL1        0.0077
     37 C          65.4989   96.7829    0.3441 C.3     1  UNL1        0.0077
@<TRIPOS>BOND
     1    18    19    1
     2    19    20    1
     3    19    17    1
     4    17    16    1
     5    16    15    1
     6    15     9    1
     7     9    10   ar
     8    10    11   ar
     9    11    12   ar
    10    12    13   ar
    11    13    14   ar
    12    14     1    1
    13     1     2    1
    14     2    32    1
    15    32    33    2
    16    32    34    1
    17    34    35    1
    18    34    36    1
    19    34    37    1
    20     2     3    2
    21     3     4    1
    22     3     5    1
    23     5     6    2
    24     5     7   am
    25     7    21    1
    26    21    22   ar
    27    22    23   ar
    28    23    24   ar
    29    24    27    1
    30    27    28   ar
    31    28    29   ar
    32    29    30   ar
    33    30    31   ar
    34    24    25   ar
    35    25    26   ar
    36    14     9   ar
    37     7     1    1
    38    26    21   ar
    39    31    27   ar
    40     4     8    1
@<TRIPOS>MOLECULE
*****
 37 40 0 0 0
SMALL
GASTEIGER

@<TRIPOS>ATOM
      1 C          64.7119   91.4746   13.8930 C.3     1  UNL1        0.1338
      2 C          65.7827   92.4610   14.2542 C.2     1  UNL1        0.0732
      3 C          66.1065   93.2631   13.0287 C.2     1  UNL1        0.1887
      4 O          67.1226   94.3628   12.9378 O.2     1  UNL1       -0.5020
      5 C          65.2358   92.7725   11.9101 C.2     1  UNL1        0.2869
      6 O          65.2283   93.2953   10.5042 O.2     1  UNL1       -0.2662
      7 N          64.3739   91.6671   12.4443 N.am    1  UNL1       -0.2463
      8 H          67.6228   94.6021   13.6931 H       1  UNL1        0.2924
      9 C          63.8702   89.0610   14.3577 C.ar    1  UNL1        0.1365
     10 C          63.2468   88.0581   15.2827 C.ar    1  UNL1        0.0366
     11 C          62.8417   88.4661   16.6681 C.ar    1  UNL1        0.0031
     12 C          63.0600   89.8769   17.1285 C.ar    1  UNL1       -0.0001
     13 C          63.6834   90.8797   16.2035 C.ar    1  UNL1        0.0007
     14 C          64.0885   90.4718   14.8181 C.ar    1  UNL1        0.0344
     15 O          64.2753   88.6530   12.9722 O.3     1  UNL1       -0.4742
     16 C          63.5977   87.4939   12.3033 C.3     1  UNL1        0.2226
     17 C          63.5415   86.1608   12.9885 C.3     1  UNL1        0.1201
     18 C          62.8040   83.6696   13.0028 C.3     1  UNL1        0.0898
     19 N          62.9266   84.9841   12.2905 N.3     1  UNL1       -0.2672
     20 C          62.4342   85.1218   10.8804 C.3     1  UNL1        0.0898
     21 C          63.3532   90.8906   11.6663 C.ar    1  UNL1        0.0548
     22 C          61.9873   90.6606   12.2418 C.ar    1  UNL1        0.0149
     23 C          60.9666   89.8841   11.4639 C.ar    1  UNL1        0.0013
     24 C          61.3118   89.3376   10.1103 C.ar    1  UNL1        0.0006
     25 C          62.6779   89.5676    9.5347 C.ar    1  UNL1        0.0013
     26 C          63.6985   90.3441   10.3128 C.ar    1  UNL1        0.0149
     27 C          60.2912   88.5611    9.3323 C.ar    1  UNL1        0.0070
     28 C          59.7208   87.2268    9.7125 C.ar    1  UNL1        0.0075
     29 C          58.7388   86.8236    8.6528 C.ar    1  UNL1        0.0355
     30 S          58.7022   87.9087    7.6177 S.2     1  UNL1       -0.0859
     31 C          59.6617   88.9825    8.0378 C.ar    1  UNL1        0.0354
     32 C          66.4181   92.6177   15.6038 C.2     1  UNL1        0.1732
     33 O          65.9389   92.8449   16.8454 O.2     1  UNL1       -0.2915
     34 C          67.9082   92.5235   15.7468 C.3     1  UNL1        0.0554
     35 C          67.8588   91.0874   15.3166 C.3     1  UNL1        0.0077
     36 C          67.9578   93.9596   16.1771 C.3     1  UNL1        0.0077
     37 C          69.3984   92.4293   15.8899 C.3     1  UNL1        0.0077
@<TRIPOS>BOND
     1    18    19    1
     2    19    20    1
     3    19    17    1
     4    17    16    1
     5    16    15    1
     6    15     9    1
     7     9    10   ar
     8    10    11   ar
     9    11    12   ar
    10    12    13   ar
    11    13    14   ar
    12    14     1    1
    13     1     2    1
    14     2    32    1
    15    32    33    2
    16    32    34    1
    17    34    35    1
    18    34    36    1
    19    34    37    1
    20     2     3    2
    21     3     4    1
    22     3     5    1
    23     5     6    2
    24     5     7   am
    25     7    21    1
    26    21    22   ar
    27    22    23   ar
    28    23    24   ar
    29    24    27    1
    30    27    28   ar
    31    28    29   ar
    32    29    30   ar
    33    30    31   ar
    34    24    25   ar
    35    25    26   ar
    36    14     9   ar
    37     7     1    1
    38    26    21   ar
    39    31    27   ar
    40     4     8    1
@<TRIPOS>MOLECULE
*****
 37 40 0 0 0
SMALL
GASTEIGER

@<TRIPOS>ATOM
      1 C          61.7763   94.4893   -0.9723 C.3     1  UNL1        0.1338
      2 C          63.2094   94.0805   -1.1424 C.2     1  UNL1        0.0732
      3 C          63.4124   93.6880   -2.5759 C.2     1  UNL1        0.1887
      4 O          64.6975   93.2128   -3.1864 O.2     1  UNL1       -0.5020
      5 C          62.1047   93.8543   -3.2917 C.2     1  UNL1        0.2869
      6 O          61.8525   93.5744   -4.7436 O.2     1  UNL1       -0.2662
      7 N          61.0935   94.3495   -2.3006 N.am    1  UNL1       -0.2463
      8 H          65.4682   93.1400   -2.6585 H       1  UNL1        0.2924
      9 C          60.9194   93.9902    1.4292 C.ar    1  UNL1        0.1365
     10 C          60.2811   94.4568    2.7038 C.ar    1  UNL1        0.0366
     11 C          59.8612   95.8892    2.8517 C.ar    1  UNL1        0.0031
     12 C          60.0796   96.8550    1.7249 C.ar    1  UNL1       -0.0001
     13 C          60.7180   96.3884    0.4503 C.ar    1  UNL1        0.0007
     14 C          61.1379   94.9560    0.3024 C.ar    1  UNL1        0.0344
     15 O          61.3394   92.5578    1.2812 O.3     1  UNL1       -0.4742
     16 C          61.6358   91.7335    2.4989 C.3     1  UNL1        0.2226
     17 C          61.2448   92.2351    3.8574 C.3     1  UNL1        0.1201
     18 C          60.2302   90.5006    5.5043 C.3     1  UNL1        0.0898
     19 N          60.0540   91.6513    4.5584 N.3     1  UNL1       -0.2672
     20 C          58.6871   92.2183    4.3133 C.3     1  UNL1        0.0898
     21 C          59.6526   94.6517   -2.5874 C.ar    1  UNL1        0.0548
     22 C          58.5721   93.8359   -1.9417 C.ar    1  UNL1        0.0149
     23 C          57.1312   94.1382   -2.2285 C.ar    1  UNL1        0.0013
     24 C          56.7706   95.2564   -3.1611 C.ar    1  UNL1        0.0006
     25 C          57.8511   96.0723   -3.8070 C.ar    1  UNL1        0.0013
     26 C          59.2920   95.7699   -3.5200 C.ar    1  UNL1        0.0149
     27 C          55.3297   95.5587   -3.4480 C.ar    1  UNL1        0.0070
     28 C          54.2162   95.5791   -2.4431 C.ar    1  UNL1        0.0075
     29 C          52.9476   95.9266   -3.1641 C.ar    1  UNL1        0.0355
     30 S          53.2771   96.1210   -4.6146 S.2     1  UNL1       -0.0859
     31 C          54.7493   95.8936   -4.7899 C.ar    1  UNL1        0.0354
     32 C          64.2559   94.0666   -0.0679 C.2     1  UNL1        0.1732
     33 O          65.0222   93.1010    0.4826 O.2     1  UNL1       -0.2915
     34 C          64.6294   95.3397    0.6319 C.3     1  UNL1        0.0554
     35 C          64.9239   95.9809   -0.6917 C.3     1  UNL1        0.0077
     36 C          64.3348   94.6985    1.9556 C.3     1  UNL1        0.0077
     37 C          65.0029   96.6127    1.3318 C.3     1  UNL1        0.0077
@<TRIPOS>BOND
     1    18    19    1
     2    19    20    1
     3    19    17    1
     4    17    16    1
     5    16    15    1
     6    15     9    1
     7     9    10   ar
     8    10    11   ar
     9    11    12   ar
    10    12    13   ar
    11    13    14   ar
    12    14     1    1
    13     1     2    1
    14     2    32    1
    15    32    33    2
    16    32    34    1
    17    34    35    1
    18    34    36    1
    19    34    37    1
    20     2     3    2
    21     3     4    1
    22     3     5    1
    23     5     6    2
    24     5     7   am
    25     7    21    1
    26    21    22   ar
    27    22    23   ar
    28    23    24   ar
    29    24    27    1
    30    27    28   ar
    31    28    29   ar
    32    29    30   ar
    33    30    31   ar
    34    24    25   ar
    35    25    26   ar
    36    14     9   ar
    37     7     1    1
    38    26    21   ar
    39    31    27   ar
    40     4     8    1
@<TRIPOS>MOLECULE
*****
 37 40 0 0 0
SMALL
GASTEIGER

@<TRIPOS>ATOM
      1 C          62.6915   87.5210   11.9140 C.3     1  UNL1        0.1338
      2 C          63.0941   88.8076   12.5716 C.2     1  UNL1        0.0732
      3 C          64.0066   88.4778   13.7155 C.2     1  UNL1        0.1887
      4 O          64.6455   89.4652   14.6466 O.2     1  UNL1       -0.5020
      5 C          64.1679   86.9873   13.7649 C.2     1  UNL1        0.2869
      6 O          64.9966   86.2225   14.7541 O.2     1  UNL1       -0.2662
      7 N          63.3552   86.3960   12.6515 N.am    1  UNL1       -0.2463
      8 H          64.4860   90.3821   14.5385 H       1  UNL1        0.2924
      9 C          60.3288   87.7231   10.8524 C.ar    1  UNL1        0.1365
     10 C          59.4218   87.5856    9.6657 C.ar    1  UNL1        0.0366
     11 C          59.9704   87.1084    8.3538 C.ar    1  UNL1        0.0031
     12 C          61.4260   86.7687    8.2285 C.ar    1  UNL1       -0.0001
     13 C          62.3331   86.9062    9.4152 C.ar    1  UNL1        0.0007
     14 C          61.7844   87.3834   10.7272 C.ar    1  UNL1        0.0344
     15 O          59.7802   88.2003   12.1645 O.3     1  UNL1       -0.4742
     16 C          58.3746   88.7178   12.2460 C.3     1  UNL1        0.2226
     17 C          57.5742   88.5204   13.4991 C.3     1  UNL1        0.1201
     18 C          55.0932   88.8152   12.7863 C.3     1  UNL1        0.0898
     19 N          56.1738   87.9889   13.4186 N.3     1  UNL1       -0.2672
     20 C          55.8540   86.6313   13.9704 C.3     1  UNL1        0.0898
     21 C          63.2284   84.9360   12.3318 C.ar    1  UNL1        0.0548
     22 C          63.6814   84.4179   10.9990 C.ar    1  UNL1        0.0149
     23 C          63.5546   82.9579   10.6792 C.ar    1  UNL1        0.0013
     24 C          62.9747   82.0158   11.6923 C.ar    1  UNL1        0.0006
     25 C          62.5216   82.5338   13.0252 C.ar    1  UNL1        0.0013
     26 C          62.6485   83.9939   13.3448 C.ar    1  UNL1        0.0149
     27 C          62.8479   80.5558   11.3725 C.ar    1  UNL1        0.0070
     28 C          62.5565   79.4603   12.3547 C.ar    1  UNL1        0.0075
     29 C          62.5187   78.1624   11.6037 C.ar    1  UNL1        0.0355
     30 S          62.7868   78.4558   10.1573 S.2     1  UNL1       -0.0859
     31 C          62.9902   79.9351   10.0145 C.ar    1  UNL1        0.0354
     32 C          62.6604   90.1826   12.1579 C.2     1  UNL1        0.1732
     33 O          61.5111   90.8803   12.2811 O.2     1  UNL1       -0.2915
     34 C          63.6180   91.0871   11.4404 C.3     1  UNL1        0.0554
     35 C          63.0368   90.6594   10.1255 C.3     1  UNL1        0.0077
     36 C          64.1992   91.5148   12.7555 C.3     1  UNL1        0.0077
     37 C          64.5756   91.9916   10.7230 C.3     1  UNL1        0.0077
@<TRIPOS>BOND
     1    18    19    1
     2    19    20    1
     3    19    17    1
     4    17    16    1
     5    16    15    1
     6    15     9    1
     7     9    10   ar
     8    10    11   ar
     9    11    12   ar
    10    12    13   ar
    11    13    14   ar
    12    14     1    1
    13     1     2    1
    14     2    32    1
    15    32    33    2
    16    32    34    1
    17    34    35    1
    18    34    36    1
    19    34    37    1
    20     2     3    2
    21     3     4    1
    22     3     5    1
    23     5     6    2
    24     5     7   am
    25     7    21    1
    26    21    22   ar
    27    22    23   ar
    28    23    24   ar
    29    24    27    1
    30    27    28   ar
    31    28    29   ar
    32    29    30   ar
    33    30    31   ar
    34    24    25   ar
    35    25    26   ar
    36    14     9   ar
    37     7     1    1
    38    26    21   ar
    39    31    27   ar
    40     4     8    1
@<TRIPOS>MOLECULE
*****
 37 40 0 0 0
SMALL
GASTEIGER

@<TRIPOS>ATOM
      1 C          63.0065   88.8069   12.0019 C.3     1  UNL1        0.1338
      2 C          61.9908   88.5440   10.9299 C.2     1  UNL1        0.0732
      3 C          61.9564   89.7370   10.0213 C.2     1  UNL1        0.1887
      4 O          61.0813   89.9011    8.8142 O.2     1  UNL1       -0.5020
      5 C          62.9509   90.7373   10.5318 C.2     1  UNL1        0.2869
      6 O          63.2448   92.0771    9.9249 O.2     1  UNL1       -0.2662
      7 N          63.5999   90.1624   11.7559 N.am    1  UNL1       -0.2463
      8 H          60.4869   89.2190    8.5702 H       1  UNL1        0.2924
      9 C          63.5609   86.4151   12.8517 C.ar    1  UNL1        0.1365
     10 C          63.9202   85.4857   13.9729 C.ar    1  UNL1        0.0366
     11 C          64.0843   86.0185   15.3654 C.ar    1  UNL1        0.0031
     12 C          63.8891   87.4808   15.6368 C.ar    1  UNL1       -0.0001
     13 C          63.5299   88.4102   14.5156 C.ar    1  UNL1        0.0007
     14 C          63.3658   87.8774   13.1231 C.ar    1  UNL1        0.0344
     15 O          63.3968   85.8823   11.4591 O.3     1  UNL1       -0.4742
     16 C          63.5576   84.4147   11.1939 C.3     1  UNL1        0.2226
     17 C          62.5374   83.4433   11.7091 C.3     1  UNL1        0.1201
     18 C          61.9340   81.4645   13.2809 C.3     1  UNL1        0.0898
     19 N          62.9645   82.2973   12.5776 N.3     1  UNL1       -0.2672
     20 C          64.4221   81.9840   12.7427 C.3     1  UNL1        0.0898
     21 C          64.6567   90.8264   12.5879 C.ar    1  UNL1        0.0548
     22 C          64.6735   90.6308   14.0749 C.ar    1  UNL1        0.0149
     23 C          65.7303   91.2948   14.9069 C.ar    1  UNL1        0.0013
     24 C          66.7703   92.1546   14.2519 C.ar    1  UNL1        0.0006
     25 C          66.7536   92.3503   12.7647 C.ar    1  UNL1        0.0013
     26 C          65.6967   91.6862   11.9328 C.ar    1  UNL1        0.0149
     27 C          67.8271   92.8186   15.0838 C.ar    1  UNL1        0.0070
     28 C          68.8799   92.1208   15.8930 C.ar    1  UNL1        0.0075
     29 C          69.7201   93.1679   16.5620 C.ar    1  UNL1        0.0355
     30 S          69.1866   94.5129   16.1663 S.2     1  UNL1       -0.0859
     31 C          68.0166   94.2969   15.2527 C.ar    1  UNL1        0.0354
     32 C          61.1560   87.3056   10.7908 C.2     1  UNL1        0.1732
     33 O          60.6812   86.3917   11.6637 O.2     1  UNL1       -0.2915
     34 C          60.6756   86.8729    9.4373 C.3     1  UNL1        0.0554
     35 C          59.2891   87.3281    9.7839 C.3     1  UNL1        0.0077
     36 C          62.0622   86.4177    9.0906 C.3     1  UNL1        0.0077
     37 C          60.1953   86.4402    8.0838 C.3     1  UNL1        0.0077
@<TRIPOS>BOND
     1    18    19    1
     2    19    20    1
     3    19    17    1
     4    17    16    1
     5    16    15    1
     6    15     9    1
     7     9    10   ar
     8    10    11   ar
     9    11    12   ar
    10    12    13   ar
    11    13    14   ar
    12    14     1    1
    13     1     2    1
    14     2    32    1
    15    32    33    2
    16    32    34    1
    17    34    35    1
    18    34    36    1
    19    34    37    1
    20     2     3    2
    21     3     4    1
    22     3     5    1
    23     5     6    2
    24     5     7   am
    25     7    21    1
    26    21    22   ar
    27    22    23   ar
    28    23    24   ar
    29    24    27    1
    30    27    28   ar
    31    28    29   ar
    32    29    30   ar
    33    30    31   ar
    34    24    25   ar
    35    25    26   ar
    36    14     9   ar
    37     7     1    1
    38    26    21   ar
    39    31    27   ar
    40     4     8    1
@<TRIPOS>MOLECULE
*****
 37 40 0 0 0
SMALL
GASTEIGER

@<TRIPOS>ATOM
      1 C          62.8197   87.1802   12.0168 C.3     1  UNL1        0.1338
      2 C          63.2100   88.4258   12.7557 C.2     1  UNL1        0.0732
      3 C          64.0713   88.0254   13.9167 C.2     1  UNL1        0.1887
      4 O          64.6832   88.9549   14.9225 O.2     1  UNL1       -0.5020
      5 C          64.2133   86.5322   13.8953 C.2     1  UNL1        0.2869
      6 O          64.9921   85.7065   14.8759 O.2     1  UNL1       -0.2662
      7 N          63.4398   86.0099   12.7211 N.am    1  UNL1       -0.2463
      8 H          64.5389   89.8783   14.8557 H       1  UNL1        0.2924
      9 C          60.5040   87.4656   10.8739 C.ar    1  UNL1        0.1365
     10 C          59.6445   87.4015    9.6463 C.ar    1  UNL1        0.0366
     11 C          60.2413   86.9878    8.3338 C.ar    1  UNL1        0.0031
     12 C          61.6975   86.6383    8.2489 C.ar    1  UNL1       -0.0001
     13 C          62.5570   86.7024    9.4765 C.ar    1  UNL1        0.0007
     14 C          61.9602   87.1161   10.7890 C.ar    1  UNL1        0.0344
     15 O          59.9072   87.8793   12.1865 O.3     1  UNL1       -0.4742
     16 C          58.5898   88.5957   12.2189 C.3     1  UNL1        0.2226
     17 C          58.5356   90.0497   12.5832 C.3     1  UNL1        0.1201
     18 C          58.2762   92.4805   11.7033 C.3     1  UNL1        0.0898
     19 N          58.8271   91.0941   11.5467 N.3     1  UNL1       -0.2672
     20 C          59.6694   90.7520   10.3536 C.3     1  UNL1        0.0898
     21 C          63.3092   84.5701   12.3213 C.ar    1  UNL1        0.0548
     22 C          63.9435   84.0836   11.0521 C.ar    1  UNL1        0.0149
     23 C          63.8130   82.6437   10.6524 C.ar    1  UNL1        0.0013
     24 C          63.0481   81.6903   11.5219 C.ar    1  UNL1        0.0006
     25 C          62.4137   82.1768   12.7912 C.ar    1  UNL1        0.0013
     26 C          62.5443   83.6167   13.1908 C.ar    1  UNL1        0.0149
     27 C          62.9175   80.2505   11.1221 C.ar    1  UNL1        0.0070
     28 C          63.0498   79.7064    9.7306 C.ar    1  UNL1        0.0075
     29 C          62.8458   78.2216    9.7921 C.ar    1  UNL1        0.0355
     30 S          62.5875   77.8481   11.2218 S.2     1  UNL1       -0.0859
     31 C          62.6318   79.1021   12.0437 C.ar    1  UNL1        0.0354
     32 C          62.8094   89.8261   12.3967 C.2     1  UNL1        0.1732
     33 O          61.6996   90.5663   12.6040 O.2     1  UNL1       -0.2915
     34 C          63.7585   90.7071   11.6399 C.3     1  UNL1        0.0554
     35 C          64.3227   91.2119   12.9347 C.3     1  UNL1        0.0077
     36 C          63.1944   90.2022   10.3449 C.3     1  UNL1        0.0077
     37 C          64.7076   91.5881   10.8829 C.3     1  UNL1        0.0077
@<TRIPOS>BOND
     1    18    19    1
     2    19    20    1
     3    19    17    1
     4    17    16    1
     5    16    15    1
     6    15     9    1
     7     9    10   ar
     8    10    11   ar
     9    11    12   ar
    10    12    13   ar
    11    13    14   ar
    12    14     1    1
    13     1     2    1
    14     2    32    1
    15    32    33    2
    16    32    34    1
    17    34    35    1
    18    34    36    1
    19    34    37    1
    20     2     3    2
    21     3     4    1
    22     3     5    1
    23     5     6    2
    24     5     7   am
    25     7    21    1
    26    21    22   ar
    27    22    23   ar
    28    23    24   ar
    29    24    27    1
    30    27    28   ar
    31    28    29   ar
    32    29    30   ar
    33    30    31   ar
    34    24    25   ar
    35    25    26   ar
    36    14     9   ar
    37     7     1    1
    38    26    21   ar
    39    31    27   ar
    40     4     8    1
