@<TRIPOS>MOLECULE
*****
 42 47 0 0 0
SMALL
GASTEIGER

@<TRIPOS>ATOM
      1 N          61.6873   94.1374    0.3910 N.am    1  UNL1       -0.2222
      2 C          61.9355   93.3707    1.6562 C.2     1  UNL1        0.3219
      3 O          63.2665   93.1669    2.3170 O.2     1  UNL1       -0.2512
      4 N          60.6187   92.8434    2.1444 N.am    1  UNL1       -0.1907
      5 C          59.5569   93.2843    1.1810 C.2     1  UNL1        0.2529
      6 O          58.0919   92.9790    1.2833 O.2     1  UNL1       -0.2724
      7 C          60.2173   94.0840    0.0973 C.3     1  UNL1        0.1391
      8 C          61.0132   94.8581   -0.9113 C.3     1  UNL1        0.0449
      9 C          60.3245   95.4929   -2.0828 C.3     1  UNL1        0.0746
     10 N          58.8399   95.3538   -2.2458 N.3     1  UNL1       -0.2676
     11 C          58.0440   94.5797   -1.2372 C.3     1  UNL1        0.0746
     12 C          58.7327   93.9449   -0.0657 C.3     1  UNL1        0.0449
     13 C          64.2573   94.9071   -2.5335 C.ar    1  UNL1        0.2293
     14 C          63.2179   94.2094   -1.7071 C.ar    1  UNL1        0.0924
     15 C          62.7267   94.8351   -0.4354 C.ar    1  UNL1        0.1453
     16 N          63.2750   96.1583    0.0100 N.ar    1  UNL1       -0.2084
     17 C          64.3144   96.8560   -0.8163 C.ar    1  UNL1        0.2027
     18 N          64.8056   96.2303   -2.0881 N.ar    1  UNL1       -0.1892
     19 C          64.3038   92.8993   -4.1816 C.3     1  UNL1        0.2542
     20 O          64.7484   94.2815   -3.8053 O.3     1  UNL1       -0.4560
     21 C          60.4020   92.0199    3.3792 C.ar    1  UNL1        0.0622
     22 C          59.0496   91.9810    4.0269 C.ar    1  UNL1        0.0154
     23 C          58.8329   91.1575    5.2618 C.ar    1  UNL1        0.0018
     24 C          59.9684   90.3728    5.8488 C.ar    1  UNL1        0.0061
     25 C          61.3209   90.4116    5.2011 C.ar    1  UNL1        0.0018
     26 C          61.5375   91.2352    3.9662 C.ar    1  UNL1        0.0154
     27 C          59.7517   89.5492    7.0837 C.ar    1  UNL1        0.0295
     28 C          59.0079   88.2486    7.1567 C.ar    1  UNL1        0.0070
     29 C          59.0372   87.7772    8.5804 C.ar    1  UNL1        0.0081
     30 C          59.7990   88.7865    9.3872 C.ar    1  UNL1        0.0434
     31 S          60.2405   89.8816    8.4622 S.2     1  UNL1       -0.0858
     32 C          60.0714   88.7135   10.8605 C.2     1  UNL1        0.0789
     33 O          60.6520   87.4646   11.4548 O.co2   1  UNL1       -0.5441
     34 O          59.7632   89.8892   11.7394 O.co2   1  UNL1       -0.5441
     35 C          58.1512   95.9887   -3.4175 C.3     1  UNL1        0.1183
     36 C          57.6223   95.1333   -4.5303 C.ar    1  UNL1        0.0712
     37 N          58.5535   94.6166   -5.5867 N.ar    1  UNL1       -0.2471
     38 C          58.0245   93.7612   -6.6996 C.ar    1  UNL1        0.0985
     39 C          56.5643   93.4224   -6.7560 C.ar    1  UNL1        0.0203
     40 C          55.6331   93.9391   -5.6997 C.ar    1  UNL1       -0.0015
     41 C          56.1621   94.7945   -4.5868 C.ar    1  UNL1       -0.0069
     42 C          55.2309   95.3112   -3.5304 C.3     1  UNL1        0.0323
@<TRIPOS>UNITY_ATOM_ATTR
33 1
charge -1
@<TRIPOS>BOND
     1    19    20    1
     2    20    13    1
     3    13    14   ar
     4    14    15   ar
     5    15     1    1
     6     1     2   am
     7     2     3    2
     8     2     4   am
     9     4    21    1
    10    21    22   ar
    11    22    23   ar
    12    23    24   ar
    13    24    27    1
    14    27    28   ar
    15    28    29   ar
    16    29    30   ar
    17    30    32    1
    18    32    33   ar
    19    32    34   ar
    20    30    31   ar
    21    24    25   ar
    22    25    26   ar
    23     4     5   am
    24     5     6    2
    25     5     7    1
    26     7     8    1
    27     8     9    1
    28     9    10    1
    29    10    35    1
    30    35    36    1
    31    36    37   ar
    32    37    38   ar
    33    38    39   ar
    34    39    40   ar
    35    40    41   ar
    36    41    42    1
    37    10    11    1
    38    11    12    1
    39    15    16   ar
    40    16    17   ar
    41    17    18   ar
    42    18    13   ar
    43     7     1    1
    44    41    36   ar
    45    26    21   ar
    46    12     7    1
    47    31    27   ar
@<TRIPOS>MOLECULE
*****
 42 47 0 0 0
SMALL
GASTEIGER

@<TRIPOS>ATOM
      1 N          62.0989   94.4006   -0.5235 N.am    1  UNL1       -0.2222
      2 C          62.3504   93.6157    0.7298 C.2     1  UNL1        0.3219
      3 O          63.6946   93.2555    1.2897 O.2     1  UNL1       -0.2512
      4 N          61.0218   93.2542    1.3249 N.am    1  UNL1       -0.1907
      5 C          59.9491   93.8157    0.4394 C.2     1  UNL1        0.2529
      6 O          58.4704   93.6907    0.6578 O.2     1  UNL1       -0.2724
      7 C          60.6148   94.5243   -0.7030 C.3     1  UNL1        0.1391
      8 C          61.4173   95.1912   -1.7805 C.3     1  UNL1        0.0449
      9 C          60.7212   95.8991   -2.9049 C.3     1  UNL1        0.0746
     10 N          59.2225   95.9400   -2.9517 N.3     1  UNL1       -0.2676
     11 C          58.4199   95.2730   -1.8742 C.3     1  UNL1        0.0746
     12 C          59.1161   94.5652   -0.7499 C.3     1  UNL1        0.0449
     13 C          64.6203   94.7583   -3.5672 C.ar    1  UNL1        0.2293
     14 C          63.5718   94.1958   -2.6538 C.ar    1  UNL1        0.0924
     15 C          63.1474   94.9631   -1.4369 C.ar    1  UNL1        0.1453
     16 N          63.7714   96.2930   -1.1333 N.ar    1  UNL1       -0.2084
     17 C          64.8198   96.8555   -2.0466 C.ar    1  UNL1        0.2027
     18 N          65.2443   96.0881   -3.2636 N.ar    1  UNL1       -0.1892
     19 C          64.5653   92.5846   -4.9891 C.3     1  UNL1        0.2542
     20 O          65.0448   93.9911   -4.7842 O.3     1  UNL1       -0.4560
     21 C          60.8040   92.4691    2.5842 C.ar    1  UNL1        0.0622
     22 C          61.9051   91.6108    3.1328 C.ar    1  UNL1        0.0154
     23 C          61.6873   90.8257    4.3923 C.ar    1  UNL1        0.0018
     24 C          60.3685   90.8988    5.1031 C.ar    1  UNL1        0.0061
     25 C          59.2673   91.7572    4.5546 C.ar    1  UNL1        0.0018
     26 C          59.4852   92.5423    3.2951 C.ar    1  UNL1        0.0154
     27 C          60.1507   90.1137    6.3626 C.ar    1  UNL1        0.0295
     28 C          60.3064   90.6309    7.7620 C.ar    1  UNL1        0.0070
     29 C          59.9910   89.5104    8.7080 C.ar    1  UNL1        0.0081
     30 C          59.6403   88.3008    7.8933 C.ar    1  UNL1        0.0434
     31 S          59.7391   88.6736    6.4437 S.2     1  UNL1       -0.0858
     32 C          59.2581   86.9546    8.4333 C.2     1  UNL1        0.0789
     33 O          58.0346   86.2584    7.9151 O.co2   1  UNL1       -0.5441
     34 O          60.0993   86.3044    9.4914 O.co2   1  UNL1       -0.5441
     35 C          58.5263   96.6479   -4.0762 C.3     1  UNL1        0.1183
     36 C          57.6041   95.8889   -4.9835 C.ar    1  UNL1        0.0712
     37 N          56.1279   95.8823   -4.7175 N.ar    1  UNL1       -0.2471
     38 C          55.2056   95.1232   -5.6250 C.ar    1  UNL1        0.0985
     39 C          55.7596   94.3708   -6.7984 C.ar    1  UNL1        0.0203
     40 C          57.2358   94.3774   -7.0644 C.ar    1  UNL1       -0.0015
     41 C          58.1580   95.1364   -6.1570 C.ar    1  UNL1       -0.0069
     42 C          59.6342   95.1430   -6.4231 C.3     1  UNL1        0.0323
@<TRIPOS>UNITY_ATOM_ATTR
33 1
charge -1
@<TRIPOS>BOND
     1    19    20    1
     2    20    13    1
     3    13    14   ar
     4    14    15   ar
     5    15     1    1
     6     1     2   am
     7     2     3    2
     8     2     4   am
     9     4    21    1
    10    21    22   ar
    11    22    23   ar
    12    23    24   ar
    13    24    27    1
    14    27    28   ar
    15    28    29   ar
    16    29    30   ar
    17    30    32    1
    18    32    33   ar
    19    32    34   ar
    20    30    31   ar
    21    24    25   ar
    22    25    26   ar
    23     4     5   am
    24     5     6    2
    25     5     7    1
    26     7     8    1
    27     8     9    1
    28     9    10    1
    29    10    35    1
    30    35    36    1
    31    36    37   ar
    32    37    38   ar
    33    38    39   ar
    34    39    40   ar
    35    40    41   ar
    36    41    42    1
    37    10    11    1
    38    11    12    1
    39    15    16   ar
    40    16    17   ar
    41    17    18   ar
    42    18    13   ar
    43     7     1    1
    44    41    36   ar
    45    26    21   ar
    46    12     7    1
    47    31    27   ar
@<TRIPOS>MOLECULE
*****
 42 47 0 0 0
SMALL
GASTEIGER

@<TRIPOS>ATOM
      1 N          64.5633   89.6924   14.2067 N.am    1  UNL1       -0.2222
      2 C          64.2765   88.3011   14.6885 C.2     1  UNL1        0.3219
      3 O          64.6188   87.7480   16.0401 O.2     1  UNL1       -0.2512
      4 N          63.5872   87.5600   13.5813 N.am    1  UNL1       -0.1907
      5 C          63.4480   88.4933   12.4153 C.2     1  UNL1        0.2529
      6 O          62.8165   88.1663   11.0946 O.2     1  UNL1       -0.2724
      7 C          64.0513   89.8113   12.8017 C.3     1  UNL1        0.1391
      8 C          64.6870   91.0640   13.3274 C.3     1  UNL1        0.0449
      9 C          64.7646   92.2861   12.4611 C.3     1  UNL1        0.0746
     10 N          64.2065   92.2554   11.0692 N.3     1  UNL1       -0.2676
     11 C          63.5708   91.0026   10.5435 C.3     1  UNL1        0.0746
     12 C          63.4932   89.7805   11.4098 C.3     1  UNL1        0.0449
     13 C          67.3833   92.1281   15.5722 C.ar    1  UNL1        0.2293
     14 C          66.7038   91.0457   14.7869 C.ar    1  UNL1        0.0924
     15 C          65.2428   90.7749   14.9919 C.ar    1  UNL1        0.1453
     16 N          64.4613   91.5864   15.9822 N.ar    1  UNL1       -0.2084
     17 C          65.1407   92.6688   16.7674 C.ar    1  UNL1        0.2027
     18 N          66.6018   92.9397   16.5625 N.ar    1  UNL1       -0.1892
     19 C          69.4312   93.7110   15.7967 C.3     1  UNL1        0.2542
     20 O          68.8443   92.3990   15.3673 O.3     1  UNL1       -0.4560
     21 C          63.1193   86.1359   13.6313 C.ar    1  UNL1        0.0622
     22 C          62.8908   85.3763   12.3582 C.ar    1  UNL1        0.0154
     23 C          62.4229   83.9520   12.4083 C.ar    1  UNL1        0.0018
     24 C          62.1835   83.2873   13.7315 C.ar    1  UNL1        0.0061
     25 C          62.4120   84.0469   15.0047 C.ar    1  UNL1        0.0018
     26 C          62.8799   85.4711   14.9545 C.ar    1  UNL1        0.0154
     27 C          61.7155   81.8630   13.7816 C.ar    1  UNL1        0.0295
     28 C          62.5019   80.6609   13.3495 C.ar    1  UNL1        0.0070
     29 C          61.6515   79.4457   13.5734 C.ar    1  UNL1        0.0081
     30 C          60.3396   79.8968   14.1439 C.ar    1  UNL1        0.0434
     31 S          60.3792   81.3907   14.2725 S.2     1  UNL1       -0.0858
     32 C          59.1899   79.0097   14.5197 C.2     1  UNL1        0.0789
     33 O          59.1029   77.6190   13.9642 O.co2   1  UNL1       -0.5441
     34 O          58.1273   79.5131   15.4510 O.co2   1  UNL1       -0.5441
     35 C          64.2841   93.4775   10.2028 C.3     1  UNL1        0.1183
     36 C          65.6200   94.0450    9.8245 C.ar    1  UNL1        0.0712
     37 N          66.7845   93.1293    9.5891 N.ar    1  UNL1       -0.2471
     38 C          68.1205   93.6968    9.2107 C.ar    1  UNL1        0.0985
     39 C          68.2919   95.1801    9.0678 C.ar    1  UNL1        0.0203
     40 C          67.1275   96.0959    9.3033 C.ar    1  UNL1       -0.0015
     41 C          65.7916   95.5284    9.6816 C.ar    1  UNL1       -0.0069
     42 C          64.6271   96.4441    9.9171 C.3     1  UNL1        0.0323
@<TRIPOS>UNITY_ATOM_ATTR
33 1
charge -1
@<TRIPOS>BOND
     1    19    20    1
     2    20    13    1
     3    13    14   ar
     4    14    15   ar
     5    15     1    1
     6     1     2   am
     7     2     3    2
     8     2     4   am
     9     4    21    1
    10    21    22   ar
    11    22    23   ar
    12    23    24   ar
    13    24    27    1
    14    27    28   ar
    15    28    29   ar
    16    29    30   ar
    17    30    32    1
    18    32    33   ar
    19    32    34   ar
    20    30    31   ar
    21    24    25   ar
    22    25    26   ar
    23     4     5   am
    24     5     6    2
    25     5     7    1
    26     7     8    1
    27     8     9    1
    28     9    10    1
    29    10    35    1
    30    35    36    1
    31    36    37   ar
    32    37    38   ar
    33    38    39   ar
    34    39    40   ar
    35    40    41   ar
    36    41    42    1
    37    10    11    1
    38    11    12    1
    39    15    16   ar
    40    16    17   ar
    41    17    18   ar
    42    18    13   ar
    43     7     1    1
    44    41    36   ar
    45    26    21   ar
    46    12     7    1
    47    31    27   ar
@<TRIPOS>MOLECULE
*****
 42 47 0 0 0
SMALL
GASTEIGER

@<TRIPOS>ATOM
      1 N          64.2391   89.7781   14.0588 N.am    1  UNL1       -0.2222
      2 C          64.0760   88.3180   14.3619 C.2     1  UNL1        0.3219
      3 O          64.2508   87.6712   15.7039 O.2     1  UNL1       -0.2512
      4 N          63.7073   87.6184   13.0872 N.am    1  UNL1       -0.1907
      5 C          63.6426   88.6460   11.9965 C.2     1  UNL1        0.2529
      6 O          63.3080   88.3849   10.5578 O.2     1  UNL1       -0.2724
      7 C          63.9713   89.9808   12.5969 C.3     1  UNL1        0.1391
      8 C          64.3164   91.2406   13.3344 C.3     1  UNL1        0.0449
      9 C          64.3681   92.5483   12.6016 C.3     1  UNL1        0.0746
     10 N          64.0748   92.5963   11.1313 N.3     1  UNL1       -0.2676
     11 C          63.7296   91.3366   10.3939 C.3     1  UNL1        0.0746
     12 C          63.6779   90.0288   11.1267 C.3     1  UNL1        0.0449
     13 C          66.3642   92.4758   16.0477 C.ar    1  UNL1        0.2293
     14 C          65.9976   91.4064   15.0620 C.ar    1  UNL1        0.0924
     15 C          64.6057   90.8476   15.0446 C.ar    1  UNL1        0.1453
     16 N          63.5804   91.3583   16.0131 N.ar    1  UNL1       -0.2084
     17 C          63.9469   92.4277   16.9989 C.ar    1  UNL1        0.2027
     18 N          65.3389   92.9865   17.0162 N.ar    1  UNL1       -0.1892
     19 C          68.7469   92.6122   15.0213 C.3     1  UNL1        0.2542
     20 O          67.7561   93.0347   16.0651 O.3     1  UNL1       -0.4560
     21 C          63.4488   86.1493   12.9309 C.ar    1  UNL1        0.0622
     22 C          64.0387   85.1758   13.9077 C.ar    1  UNL1        0.0154
     23 C          63.7802   83.7065   13.7513 C.ar    1  UNL1        0.0018
     24 C          62.9317   83.2107   12.6181 C.ar    1  UNL1        0.0061
     25 C          62.3417   84.1842   11.6412 C.ar    1  UNL1        0.0018
     26 C          62.6003   85.6535   11.7976 C.ar    1  UNL1        0.0154
     27 C          62.6731   81.7415   12.4617 C.ar    1  UNL1        0.0295
     28 C          62.0179   80.8489   13.4738 C.ar    1  UNL1        0.0070
     29 C          61.9642   79.4626   12.9034 C.ar    1  UNL1        0.0081
     30 C          62.5862   79.4984   11.5389 C.ar    1  UNL1        0.0434
     31 S          63.0243   80.9068   11.2659 S.2     1  UNL1       -0.0858
     32 C          62.7426   78.3308   10.6103 C.2     1  UNL1        0.0789
     33 O          62.7251   76.9328   11.1537 O.co2   1  UNL1       -0.5441
     34 O          62.9164   78.5612    9.1383 O.co2   1  UNL1       -0.5441
     35 C          64.1265   93.9042   10.3986 C.3     1  UNL1        0.1183
     36 C          65.4407   94.4408    9.9138 C.ar    1  UNL1        0.0712
     37 N          66.5752   93.5018    9.6292 N.ar    1  UNL1       -0.2471
     38 C          67.8894   94.0385    9.1444 C.ar    1  UNL1        0.0985
     39 C          68.0690   95.5141    8.9443 C.ar    1  UNL1        0.0203
     40 C          66.9345   96.4532    9.2290 C.ar    1  UNL1       -0.0015
     41 C          65.6203   95.9166    9.7137 C.ar    1  UNL1       -0.0069
     42 C          64.4858   96.8556    9.9983 C.3     1  UNL1        0.0323
@<TRIPOS>UNITY_ATOM_ATTR
33 1
charge -1
@<TRIPOS>BOND
     1    19    20    1
     2    20    13    1
     3    13    14   ar
     4    14    15   ar
     5    15     1    1
     6     1     2   am
     7     2     3    2
     8     2     4   am
     9     4    21    1
    10    21    22   ar
    11    22    23   ar
    12    23    24   ar
    13    24    27    1
    14    27    28   ar
    15    28    29   ar
    16    29    30   ar
    17    30    32    1
    18    32    33   ar
    19    32    34   ar
    20    30    31   ar
    21    24    25   ar
    22    25    26   ar
    23     4     5   am
    24     5     6    2
    25     5     7    1
    26     7     8    1
    27     8     9    1
    28     9    10    1
    29    10    35    1
    30    35    36    1
    31    36    37   ar
    32    37    38   ar
    33    38    39   ar
    34    39    40   ar
    35    40    41   ar
    36    41    42    1
    37    10    11    1
    38    11    12    1
    39    15    16   ar
    40    16    17   ar
    41    17    18   ar
    42    18    13   ar
    43     7     1    1
    44    41    36   ar
    45    26    21   ar
    46    12     7    1
    47    31    27   ar
