@<TRIPOS>MOLECULE
*****
 24 26 0 0 0
SMALL
GASTEIGER

@<TRIPOS>ATOM
      1 C          62.3289   88.5622   10.1831 C.3     1  UNL1        0.1217
      2 C          61.2722   88.0312    9.2602 C.ar    1  UNL1       -0.0045
      3 C          60.3855   88.9805    8.5103 C.ar    1  UNL1       -0.0029
      4 C          59.3289   88.4495    7.5874 C.ar    1  UNL1       -0.0003
      5 C          59.1591   86.9692    7.4146 C.ar    1  UNL1       -0.0000
      6 C          60.0459   86.0199    8.1645 C.ar    1  UNL1       -0.0003
      7 C          61.1024   86.5509    9.0873 C.ar    1  UNL1       -0.0026
      8 C          61.9892   85.6016    9.8374 C.ar    1  UNL1       -0.0003
      9 C          61.8398   85.4500   11.3222 C.ar    1  UNL1       -0.0000
     10 C          62.7266   84.5008   12.0722 C.ar    1  UNL1       -0.0000
     11 C          63.7628   83.7030   11.3374 C.ar    1  UNL1       -0.0000
     12 C          63.9122   83.8546    9.8526 C.ar    1  UNL1       -0.0000
     13 C          63.0254   84.8039    9.1025 C.ar    1  UNL1       -0.0000
     14 N          61.9355   89.2487   11.4575 N.3     1  UNL1       -0.1549
     15 C          62.8855   89.2775   12.6179 C.3     1  UNL1        0.0966
     16 C          63.6040   88.0958   13.1988 C.3     1  UNL1        0.0362
     17 C          64.4463   88.5811   14.3412 C.3     1  UNL1        0.0701
     18 N          64.2483   90.0627   14.4663 N.3     1  UNL1       -0.2963
     19 C          63.2837   90.4931   13.4013 C.3     1  UNL1        0.0865
     20 H          65.1395   90.5428   14.3407 H       1  UNL1        0.1233
     21 C          59.2488   90.5639   11.6852 C.3     1  UNL1        0.1960
     22 S          60.5922   89.9063   11.5713 S.O2    1  UNL1        0.0460
     23 O          61.1371   91.1348   10.9051 O.2     1  UNL1       -0.1572
     24 O          60.0473   88.6779   12.2376 O.2     1  UNL1       -0.1572
@<TRIPOS>BOND
     1    21    22    1
     2    22    23    2
     3    22    24    2
     4    22    14    1
     5    14     1    1
     6     1     2    1
     7     2     3   ar
     8     3     4   ar
     9     4     5   ar
    10     5     6   ar
    11     6     7   ar
    12     7     8    1
    13     8     9   ar
    14     9    10   ar
    15    10    11   ar
    16    11    12   ar
    17    12    13   ar
    18    15    14    1
    19    15    16    1
    20    16    17    1
    21    17    18    1
    22    18    19    1
    23     7     2   ar
    24    13     8   ar
    25    19    15    1
    26    18    20    1
@<TRIPOS>MOLECULE
*****
 24 26 0 0 0
SMALL
GASTEIGER

@<TRIPOS>ATOM
      1 C          62.2672   88.5724   10.1567 C.3     1  UNL1        0.1217
      2 C          61.2244   88.0498    9.2136 C.ar    1  UNL1       -0.0045
      3 C          60.3299   89.0050    8.4804 C.ar    1  UNL1       -0.0029
      4 C          59.2872   88.4824    7.5373 C.ar    1  UNL1       -0.0003
      5 C          59.1388   87.0046    7.3274 C.ar    1  UNL1       -0.0000
      6 C          60.0332   86.0494    8.0605 C.ar    1  UNL1       -0.0003
      7 C          61.0760   86.5720    9.0036 C.ar    1  UNL1       -0.0026
      8 C          61.9705   85.6168    9.7368 C.ar    1  UNL1       -0.0003
      9 C          61.8270   85.4429   11.2198 C.ar    1  UNL1       -0.0000
     10 C          62.7214   84.4877   11.9530 C.ar    1  UNL1       -0.0000
     11 C          63.7594   83.7064   11.2032 C.ar    1  UNL1       -0.0000
     12 C          63.9030   83.8803    9.7203 C.ar    1  UNL1       -0.0000
     13 C          63.0085   84.8355    8.9871 C.ar    1  UNL1       -0.0000
     14 N          61.9295   89.6816   11.1084 N.3     1  UNL1       -0.1549
     15 C          63.0109   90.5867   11.6194 C.3     1  UNL1        0.0966
     16 C          63.8979   91.4604   10.7828 C.3     1  UNL1        0.0362
     17 C          64.8305   92.1907   11.7031 C.3     1  UNL1        0.0701
     18 N          64.5199   91.7683   13.1085 N.3     1  UNL1       -0.2963
     19 C          63.3954   90.7769   13.0567 C.3     1  UNL1        0.0865
     20 H          64.2409   92.5796   13.6602 H       1  UNL1        0.1233
     21 C          59.0910   90.0897   11.9896 C.3     1  UNL1        0.1960
     22 S          60.5102   89.8856   11.5490 S.O2    1  UNL1        0.0460
     23 O          60.5003   91.2343   10.8926 O.2     1  UNL1       -0.1572
     24 O          60.5201   88.5369   12.2054 O.2     1  UNL1       -0.1572
@<TRIPOS>BOND
     1    21    22    1
     2    22    23    2
     3    22    24    2
     4    22    14    1
     5    14     1    1
     6     1     2    1
     7     2     3   ar
     8     3     4   ar
     9     4     5   ar
    10     5     6   ar
    11     6     7   ar
    12     7     8    1
    13     8     9   ar
    14     9    10   ar
    15    10    11   ar
    16    11    12   ar
    17    12    13   ar
    18    15    14    1
    19    15    16    1
    20    16    17    1
    21    17    18    1
    22    18    19    1
    23     7     2   ar
    24    13     8   ar
    25    19    15    1
    26    18    20    1
@<TRIPOS>MOLECULE
*****
 24 26 0 0 0
SMALL
GASTEIGER

@<TRIPOS>ATOM
      1 C          62.4593   88.6094   11.8268 C.3     1  UNL1        0.1217
      2 C          63.3399   89.8161   11.9621 C.ar    1  UNL1       -0.0045
      3 C          63.5296   90.7407   10.7963 C.ar    1  UNL1       -0.0029
      4 C          64.4102   91.9474   10.9317 C.ar    1  UNL1       -0.0003
      5 C          65.1012   92.2295   12.2329 C.ar    1  UNL1       -0.0000
      6 C          64.9115   91.3049   13.3987 C.ar    1  UNL1       -0.0003
      7 C          64.0309   90.0982   13.2633 C.ar    1  UNL1       -0.0026
      8 C          63.8412   89.1736   14.4291 C.ar    1  UNL1       -0.0003
      9 C          63.2049   89.6777   15.6904 C.ar    1  UNL1       -0.0000
     10 C          63.0152   88.7532   16.8562 C.ar    1  UNL1       -0.0000
     11 C          63.4618   87.3243   16.7608 C.ar    1  UNL1       -0.0000
     12 C          64.0981   86.8202   15.4994 C.ar    1  UNL1       -0.0000
     13 C          64.2878   87.7448   14.3336 C.ar    1  UNL1       -0.0000
     14 N          61.2140   88.6793   10.9936 N.3     1  UNL1       -0.1549
     15 C          61.0088   87.7088    9.8685 C.3     1  UNL1        0.0966
     16 C          62.0611   86.8311    9.2583 C.3     1  UNL1        0.0362
     17 C          61.4180   86.0254    8.1687 C.3     1  UNL1        0.0701
     18 N          59.9682   86.4052    8.1055 N.3     1  UNL1       -0.2963
     19 C          59.7154   87.4456    9.1560 C.3     1  UNL1        0.0865
     20 H          59.3876   85.5856    8.2832 H       1  UNL1        0.1233
     21 C          59.1335   90.7605   11.5776 C.3     1  UNL1        0.1960
     22 S          60.1737   89.7199   11.2856 S.O2    1  UNL1        0.0460
     23 O          60.4457   90.3642    9.9586 O.2     1  UNL1       -0.1572
     24 O          59.9018   89.0757   12.6126 O.2     1  UNL1       -0.1572
@<TRIPOS>BOND
     1    21    22    1
     2    22    23    2
     3    22    24    2
     4    22    14    1
     5    14     1    1
     6     1     2    1
     7     2     3   ar
     8     3     4   ar
     9     4     5   ar
    10     5     6   ar
    11     6     7   ar
    12     7     8    1
    13     8     9   ar
    14     9    10   ar
    15    10    11   ar
    16    11    12   ar
    17    12    13   ar
    18    15    14    1
    19    15    16    1
    20    16    17    1
    21    17    18    1
    22    18    19    1
    23     7     2   ar
    24    13     8   ar
    25    19    15    1
    26    18    20    1
@<TRIPOS>MOLECULE
*****
 24 26 0 0 0
SMALL
GASTEIGER

@<TRIPOS>ATOM
      1 C          62.2995   85.3991   12.4518 C.3     1  UNL1        0.1217
      2 C          62.5457   85.3390   10.9733 C.ar    1  UNL1       -0.0045
      3 C          63.1509   84.1097   10.3631 C.ar    1  UNL1       -0.0029
      4 C          63.3971   84.0496    8.8847 C.ar    1  UNL1       -0.0003
      5 C          63.0380   85.2189    8.0164 C.ar    1  UNL1       -0.0000
      6 C          62.4328   86.4482    8.6266 C.ar    1  UNL1       -0.0003
      7 C          62.1866   86.5083   10.1050 C.ar    1  UNL1       -0.0026
      8 C          61.5814   87.7377   10.7153 C.ar    1  UNL1       -0.0003
      9 C          62.4608   88.8797   11.1304 C.ar    1  UNL1       -0.0000
     10 C          61.8556   90.1090   11.7406 C.ar    1  UNL1       -0.0000
     11 C          60.3709   90.1964   11.9357 C.ar    1  UNL1       -0.0000
     12 C          59.4914   89.0544   11.5206 C.ar    1  UNL1       -0.0000
     13 C          60.0967   87.8250   10.9103 C.ar    1  UNL1       -0.0000
     14 N          63.0918   84.5270   13.3800 N.3     1  UNL1       -0.1549
     15 C          62.6879   83.0985   13.5946 C.3     1  UNL1        0.0966
     16 C          62.7988   81.9904   12.5896 C.3     1  UNL1        0.0362
     17 C          62.2817   80.7343   13.2256 C.3     1  UNL1        0.0701
     18 N          61.8512   81.0660   14.6238 N.3     1  UNL1       -0.2963
     19 C          62.1023   82.5271   14.8517 C.3     1  UNL1        0.0865
     20 H          62.3892   80.5140   15.2918 H       1  UNL1        0.1233
     21 C          65.4841   85.6401   14.8076 C.3     1  UNL1        0.1960
     22 S          64.2880   85.0836   14.0938 S.O2    1  UNL1        0.0460
     23 O          65.0549   83.8321   13.7845 O.2     1  UNL1       -0.1572
     24 O          63.5211   86.3350   14.4032 O.2     1  UNL1       -0.1572
@<TRIPOS>BOND
     1    21    22    1
     2    22    23    2
     3    22    24    2
     4    22    14    1
     5    14     1    1
     6     1     2    1
     7     2     3   ar
     8     3     4   ar
     9     4     5   ar
    10     5     6   ar
    11     6     7   ar
    12     7     8    1
    13     8     9   ar
    14     9    10   ar
    15    10    11   ar
    16    11    12   ar
    17    12    13   ar
    18    15    14    1
    19    15    16    1
    20    16    17    1
    21    17    18    1
    22    18    19    1
    23     7     2   ar
    24    13     8   ar
    25    19    15    1
    26    18    20    1
@<TRIPOS>MOLECULE
*****
 24 26 0 0 0
SMALL
GASTEIGER

@<TRIPOS>ATOM
      1 C          61.6024   86.4734   11.8133 C.3     1  UNL1        0.1217
      2 C          62.5026   85.4001   11.2768 C.ar    1  UNL1       -0.0045
      3 C          62.5541   85.1326    9.8017 C.ar    1  UNL1       -0.0029
      4 C          63.4543   84.0593    9.2653 C.ar    1  UNL1       -0.0003
      5 C          64.3029   83.2537   10.2038 C.ar    1  UNL1       -0.0000
      6 C          64.2513   83.5212   11.6788 C.ar    1  UNL1       -0.0003
      7 C          63.3512   84.5945   12.2153 C.ar    1  UNL1       -0.0026
      8 C          63.2996   84.8621   13.6904 C.ar    1  UNL1       -0.0003
      9 C          64.2764   85.8140   14.3145 C.ar    1  UNL1       -0.0000
     10 C          64.2249   86.0816   15.7895 C.ar    1  UNL1       -0.0000
     11 C          63.1964   85.3973   16.6404 C.ar    1  UNL1       -0.0000
     12 C          62.2195   84.4454   16.0163 C.ar    1  UNL1       -0.0000
     13 C          62.2711   84.1778   14.5412 C.ar    1  UNL1       -0.0000
     14 N          61.6853   87.8663   11.2630 N.3     1  UNL1       -0.1549
     15 C          62.4659   88.9170   11.9956 C.3     1  UNL1        0.0966
     16 C          63.6051   88.6709   12.9399 C.3     1  UNL1        0.0362
     17 C          64.0876   90.0000   13.4406 C.3     1  UNL1        0.0701
     18 N          63.2465   91.0675   12.8057 N.3     1  UNL1       -0.2963
     19 C          62.2443   90.3982   11.9127 C.3     1  UNL1        0.0865
     20 H          63.8368   91.6922   12.2564 H       1  UNL1        0.1233
     21 C          60.2902   88.5508    8.6968 C.3     1  UNL1        0.1960
     22 S          60.9877   88.2086    9.9799 S.O2    1  UNL1        0.0460
     23 O          59.6609   87.9714   10.6380 O.2     1  UNL1       -0.1572
     24 O          62.3146   88.4458    9.3218 O.2     1  UNL1       -0.1572
@<TRIPOS>BOND
     1    21    22    1
     2    22    23    2
     3    22    24    2
     4    22    14    1
     5    14     1    1
     6     1     2    1
     7     2     3   ar
     8     3     4   ar
     9     4     5   ar
    10     5     6   ar
    11     6     7   ar
    12     7     8    1
    13     8     9   ar
    14     9    10   ar
    15    10    11   ar
    16    11    12   ar
    17    12    13   ar
    18    15    14    1
    19    15    16    1
    20    16    17    1
    21    17    18    1
    22    18    19    1
    23     7     2   ar
    24    13     8   ar
    25    19    15    1
    26    18    20    1
@<TRIPOS>MOLECULE
*****
 24 26 0 0 0
SMALL
GASTEIGER

@<TRIPOS>ATOM
      1 C          61.5418   86.5392   11.5339 C.3     1  UNL1        0.1217
      2 C          62.4598   85.4782   11.0029 C.ar    1  UNL1       -0.0045
      3 C          62.5309   85.2177    9.5275 C.ar    1  UNL1       -0.0029
      4 C          63.4488   84.1567    8.9967 C.ar    1  UNL1       -0.0003
      5 C          64.2955   83.3563    9.9413 C.ar    1  UNL1       -0.0000
      6 C          64.2244   83.6168   11.4167 C.ar    1  UNL1       -0.0003
      7 C          63.3065   84.6777   11.9476 C.ar    1  UNL1       -0.0026
      8 C          63.2353   84.9383   13.4231 C.ar    1  UNL1       -0.0003
      9 C          64.0915   86.0051   14.0385 C.ar    1  UNL1       -0.0000
     10 C          64.0203   86.2657   15.5139 C.ar    1  UNL1       -0.0000
     11 C          63.0929   85.4594   16.3741 C.ar    1  UNL1       -0.0000
     12 C          62.2367   84.3925   15.7587 C.ar    1  UNL1       -0.0000
     13 C          62.3079   84.1319   14.2832 C.ar    1  UNL1       -0.0000
     14 N          61.3412   87.8110   10.7643 N.3     1  UNL1       -0.1549
     15 C          60.4784   87.8171    9.5373 C.3     1  UNL1        0.0966
     16 C          59.8438   86.6167    8.8998 C.3     1  UNL1        0.0362
     17 C          59.0719   87.0823    7.7009 C.3     1  UNL1        0.0701
     18 N          59.2295   88.5705    7.5975 N.3     1  UNL1       -0.2963
     19 C          60.0987   89.0245    8.7325 C.3     1  UNL1        0.0865
     20 H          58.3161   89.0204    7.6595 H       1  UNL1        0.1233
     21 C          62.6656   90.3426   11.6793 C.3     1  UNL1        0.1960
     22 S          62.0035   89.0768   11.2218 S.O2    1  UNL1        0.0460
     23 O          62.9766   88.9787   10.0846 O.2     1  UNL1       -0.1572
     24 O          61.0303   89.1749   12.3590 O.2     1  UNL1       -0.1572
@<TRIPOS>BOND
     1    21    22    1
     2    22    23    2
     3    22    24    2
     4    22    14    1
     5    14     1    1
     6     1     2    1
     7     2     3   ar
     8     3     4   ar
     9     4     5   ar
    10     5     6   ar
    11     6     7   ar
    12     7     8    1
    13     8     9   ar
    14     9    10   ar
    15    10    11   ar
    16    11    12   ar
    17    12    13   ar
    18    15    14    1
    19    15    16    1
    20    16    17    1
    21    17    18    1
    22    18    19    1
    23     7     2   ar
    24    13     8   ar
    25    19    15    1
    26    18    20    1
@<TRIPOS>MOLECULE
*****
 24 26 0 0 0
SMALL
GASTEIGER

@<TRIPOS>ATOM
      1 C          61.7520   85.6666   11.2524 C.3     1  UNL1        0.1217
      2 C          62.6725   86.1727   12.3232 C.ar    1  UNL1       -0.0045
      3 C          63.0005   87.6343   12.4010 C.ar    1  UNL1       -0.0029
      4 C          63.9211   88.1404   13.4718 C.ar    1  UNL1       -0.0003
      5 C          64.5135   87.1848   14.4647 C.ar    1  UNL1       -0.0000
      6 C          64.1855   85.7232   14.3869 C.ar    1  UNL1       -0.0003
      7 C          63.2650   85.2172   13.3161 C.ar    1  UNL1       -0.0026
      8 C          62.9370   83.7555   13.2382 C.ar    1  UNL1       -0.0003
      9 C          62.2042   83.0903   14.3654 C.ar    1  UNL1       -0.0000
     10 C          61.8761   81.6287   14.2875 C.ar    1  UNL1       -0.0000
     11 C          62.2808   80.8323   13.0825 C.ar    1  UNL1       -0.0000
     12 C          63.0136   81.4975   11.9553 C.ar    1  UNL1       -0.0000
     13 C          63.3417   82.9592   12.0332 C.ar    1  UNL1       -0.0000
     14 N          61.3628   86.5617   10.1134 N.3     1  UNL1       -0.1549
     15 C          60.9295   87.9723   10.3822 C.3     1  UNL1        0.0966
     16 C          59.8758   88.3998   11.3605 C.3     1  UNL1        0.0362
     17 C          59.7689   89.8949   11.3028 C.3     1  UNL1        0.0701
     18 N          60.7566   90.3914   10.2888 N.3     1  UNL1       -0.2963
     19 C          61.4738   89.2032    9.7199 C.3     1  UNL1        0.0865
     20 H          61.4257   91.0184   10.7355 H       1  UNL1        0.1233
     21 C          61.4509   85.5303    7.2976 C.3     1  UNL1        0.1960
     22 S          61.4069   86.0460    8.7054 S.O2    1  UNL1        0.0460
     23 O          62.8846   85.8228    8.8334 O.2     1  UNL1       -0.1572
     24 O          59.9291   86.2691    8.5775 O.2     1  UNL1       -0.1572
@<TRIPOS>BOND
     1    21    22    1
     2    22    23    2
     3    22    24    2
     4    22    14    1
     5    14     1    1
     6     1     2    1
     7     2     3   ar
     8     3     4   ar
     9     4     5   ar
    10     5     6   ar
    11     6     7   ar
    12     7     8    1
    13     8     9   ar
    14     9    10   ar
    15    10    11   ar
    16    11    12   ar
    17    12    13   ar
    18    15    14    1
    19    15    16    1
    20    16    17    1
    21    17    18    1
    22    18    19    1
    23     7     2   ar
    24    13     8   ar
    25    19    15    1
    26    18    20    1
@<TRIPOS>MOLECULE
*****
 24 26 0 0 0
SMALL
GASTEIGER

@<TRIPOS>ATOM
      1 C          61.5414   88.6797   11.6305 C.3     1  UNL1        0.1217
      2 C          62.5345   89.7837   11.4181 C.ar    1  UNL1       -0.0045
      3 C          62.5223   90.5678   10.1395 C.ar    1  UNL1       -0.0029
      4 C          63.5154   91.6717    9.9271 C.ar    1  UNL1       -0.0003
      5 C          64.5207   91.9915   10.9935 C.ar    1  UNL1       -0.0000
      6 C          64.5329   91.2074   12.2722 C.ar    1  UNL1       -0.0003
      7 C          63.5398   90.1035   12.4845 C.ar    1  UNL1       -0.0026
      8 C          63.5519   89.3194   13.7632 C.ar    1  UNL1       -0.0003
      9 C          63.0602   89.9481   15.0332 C.ar    1  UNL1       -0.0000
     10 C          63.0724   89.1641   16.3119 C.ar    1  UNL1       -0.0000
     11 C          63.5763   87.7512   16.3206 C.ar    1  UNL1       -0.0000
     12 C          64.0680   87.1225   15.0506 C.ar    1  UNL1       -0.0000
     13 C          64.0558   87.9066   13.7719 C.ar    1  UNL1       -0.0000
     14 N          61.3647   87.6186   10.5852 N.3     1  UNL1       -0.1549
     15 C          60.4468   87.8562    9.4228 C.3     1  UNL1        0.0966
     16 C          60.3260   89.1306    8.6410 C.3     1  UNL1        0.0362
     17 C          59.2931   88.9233    7.5732 C.3     1  UNL1        0.0701
     18 N          58.7756   87.5206    7.6952 N.3     1  UNL1       -0.2963
     19 C          59.4886   86.8612    8.8383 C.3     1  UNL1        0.0865
     20 H          58.9574   87.0083    6.8321 H       1  UNL1        0.1233
     21 C          62.8471   85.0209   10.8192 C.3     1  UNL1        0.1960
     22 S          62.1059   86.3197   10.7022 S.O2    1  UNL1        0.0460
     23 O          61.5654   86.1362   12.0893 O.2     1  UNL1       -0.1572
     24 O          62.6464   86.5032    9.3151 O.2     1  UNL1       -0.1572
@<TRIPOS>BOND
     1    21    22    1
     2    22    23    2
     3    22    24    2
     4    22    14    1
     5    14     1    1
     6     1     2    1
     7     2     3   ar
     8     3     4   ar
     9     4     5   ar
    10     5     6   ar
    11     6     7   ar
    12     7     8    1
    13     8     9   ar
    14     9    10   ar
    15    10    11   ar
    16    11    12   ar
    17    12    13   ar
    18    15    14    1
    19    15    16    1
    20    16    17    1
    21    17    18    1
    22    18    19    1
    23     7     2   ar
    24    13     8   ar
    25    19    15    1
    26    18    20    1
@<TRIPOS>MOLECULE
*****
 24 26 0 0 0
SMALL
GASTEIGER

@<TRIPOS>ATOM
      1 C          62.3316   88.0289   10.6848 C.3     1  UNL1        0.1217
      2 C          62.6881   86.9709   11.6866 C.ar    1  UNL1       -0.0045
      3 C          62.3022   85.5427   11.4387 C.ar    1  UNL1       -0.0029
      4 C          62.6588   84.4848   12.4404 C.ar    1  UNL1       -0.0003
      5 C          63.4012   84.8550   13.6902 C.ar    1  UNL1       -0.0000
      6 C          63.7870   86.2831   13.9381 C.ar    1  UNL1       -0.0003
      7 C          63.4305   87.3410   12.9363 C.ar    1  UNL1       -0.0026
      8 C          63.8164   88.7693   13.1842 C.ar    1  UNL1       -0.0003
      9 C          64.5275   89.1451   14.4504 C.ar    1  UNL1       -0.0000
     10 C          64.9133   90.5732   14.6983 C.ar    1  UNL1       -0.0000
     11 C          64.5882   91.6256   13.6801 C.ar    1  UNL1       -0.0000
     12 C          63.8771   91.2498   12.4139 C.ar    1  UNL1       -0.0000
     13 C          63.4912   89.8216   12.1660 C.ar    1  UNL1       -0.0000
     14 N          60.8989   88.2387   10.2933 N.3     1  UNL1       -0.1549
     15 C          60.2979   87.4272    9.1841 C.3     1  UNL1        0.0966
     16 C          60.9832   86.3322    8.4216 C.3     1  UNL1        0.0362
     17 C          60.0150   85.7965    7.4089 C.3     1  UNL1        0.0701
     18 N          58.7313   86.5605    7.5455 N.3     1  UNL1       -0.2963
     19 C          58.9062   87.5683    8.6426 C.3     1  UNL1        0.0865
     20 H          57.9716   85.9217    7.7802 H       1  UNL1        0.1233
     21 C          59.2353   90.2813   11.7288 C.3     1  UNL1        0.1960
     22 S          60.0671   89.2600   11.0110 S.O2    1  UNL1        0.0460
     23 O          60.5176   90.3100   10.0392 O.2     1  UNL1       -0.1572
     24 O          59.6166   88.2101   11.9829 O.2     1  UNL1       -0.1572
@<TRIPOS>BOND
     1    21    22    1
     2    22    23    2
     3    22    24    2
     4    22    14    1
     5    14     1    1
     6     1     2    1
     7     2     3   ar
     8     3     4   ar
     9     4     5   ar
    10     5     6   ar
    11     6     7   ar
    12     7     8    1
    13     8     9   ar
    14     9    10   ar
    15    10    11   ar
    16    11    12   ar
    17    12    13   ar
    18    15    14    1
    19    15    16    1
    20    16    17    1
    21    17    18    1
    22    18    19    1
    23     7     2   ar
    24    13     8   ar
    25    19    15    1
    26    18    20    1
