@<TRIPOS>MOLECULE
*****
 27 30 0 0 0
SMALL
GASTEIGER

@<TRIPOS>ATOM
      1 C          64.4327   90.9227   13.6175 C.ar    1  UNL1       -0.0209
      2 C          64.7529   89.7616   14.5114 C.ar    1  UNL1       -0.0041
      3 C          64.3019   88.3807   14.1379 C.ar    1  UNL1        0.0048
      4 C          63.5305   88.1608   12.8703 C.ar    1  UNL1        0.0623
      5 C          63.2103   89.3219   11.9764 C.ar    1  UNL1        0.0771
      6 C          63.6613   90.7029   12.3499 C.ar    1  UNL1        0.0125
      7 N          62.4389   89.1022   10.7088 N.am    1  UNL1       -0.1721
      8 C          61.9878   87.7212   10.3352 C.2     1  UNL1        0.3160
      9 O          61.2165   87.5014    9.0676 O.2     1  UNL1       -0.2638
     10 C          62.3082   86.5601   11.2292 C.2     1  UNL1        0.2907
     11 N          61.9980   85.0964   11.1232 N.2     1  UNL1       -0.0256
     12 C          62.5776   84.4115   12.3253 C.2     1  UNL1        0.3765
     13 N          63.2460   85.4520   13.1742 N.2     1  UNL1       -0.0302
     14 C          63.0795   86.7799   12.4967 C.2     1  UNL1        0.2419
     15 C          62.5021   82.9438   12.6257 C.ar    1  UNL1        0.0989
     16 C          61.8728   82.4710   13.9026 C.ar    1  UNL1        0.0085
     17 C          61.7973   81.0034   14.2030 C.ar    1  UNL1        0.0003
     18 C          62.3511   80.0085   13.2265 C.ar    1  UNL1        0.0009
     19 C          62.9804   80.4813   11.9496 C.ar    1  UNL1        0.0116
     20 C          63.0559   81.9489   11.6493 C.ar    1  UNL1        0.0651
     21 CL         63.6852   82.4218   10.3723 Cl      1  UNL1       -0.0820
     22 C          64.8837   92.3036   13.9911 C.3     1  UNL1        0.0264
     23 C          66.1981   92.8245   13.4901 C.3     1  UNL1        0.0047
     24 C          67.4301   91.9751   13.5936 C.3     1  UNL1        0.0003
     25 C          67.9844   91.6190   14.9412 C.3     1  UNL1        0.0000
     26 C          68.8540   93.8367   15.9784 C.3     1  UNL1        0.0000
     27 C          67.9672   92.6290   16.0501 C.3     1  UNL1        0.0000
@<TRIPOS>BOND
     1    26    27    1
     2    27    25    1
     3    25    24    1
     4    24    23    1
     5    23    22    1
     6    22     1    1
     7     1     2   ar
     8     2     3   ar
     9     3     4   ar
    10     4     5   ar
    11     5     6   ar
    12     5     7    2
    13     7     8    1
    14     8     9    2
    15     8    10    1
    16    10    11    2
    17    11    12    1
    18    12    15    1
    19    15    16   ar
    20    16    17   ar
    21    17    18   ar
    22    18    19   ar
    23    19    20   ar
    24    20    21    1
    25    12    13    2
    26    13    14    1
    27     6     1   ar
    28    14    10    1
    29    14     4    2
    30    20    15   ar
@<TRIPOS>MOLECULE
*****
 27 30 0 0 0
SMALL
GASTEIGER

@<TRIPOS>ATOM
      1 C          64.6213   90.9753   13.7461 C.ar    1  UNL1       -0.0209
      2 C          64.9310   89.7990   14.6237 C.ar    1  UNL1       -0.0041
      3 C          64.4435   88.4318   14.2452 C.ar    1  UNL1        0.0048
      4 C          63.6462   88.2410   12.9891 C.ar    1  UNL1        0.0623
      5 C          63.3364   89.4173   12.1115 C.ar    1  UNL1        0.0771
      6 C          63.8240   90.7845   12.4899 C.ar    1  UNL1        0.0125
      7 N          62.5391   89.2266   10.8553 N.am    1  UNL1       -0.1721
      8 C          62.0515   87.8594   10.4768 C.2     1  UNL1        0.3160
      9 O          61.2542   87.6686    9.2207 O.2     1  UNL1       -0.2638
     10 C          62.3613   86.6831   11.3545 C.2     1  UNL1        0.2907
     11 N          62.0173   85.2276   11.2404 N.2     1  UNL1       -0.0256
     12 C          62.6021   84.5188   12.4260 C.2     1  UNL1        0.3765
     13 N          63.3074   85.5362   13.2728 N.2     1  UNL1       -0.0302
     14 C          63.1587   86.8739   12.6106 C.2     1  UNL1        0.2419
     15 C          62.4994   83.0502   12.7142 C.ar    1  UNL1        0.0989
     16 C          61.8555   82.5783   13.9841 C.ar    1  UNL1        0.0085
     17 C          61.7529   81.1099   14.2722 C.ar    1  UNL1        0.0003
     18 C          62.2941   80.1133   13.2904 C.ar    1  UNL1        0.0009
     19 C          62.9380   80.5852   12.0205 C.ar    1  UNL1        0.0116
     20 C          63.0406   82.0537   11.7324 C.ar    1  UNL1        0.0651
     21 CL         63.6846   82.5256   10.4625 Cl      1  UNL1       -0.0820
     22 C          65.1088   92.3424   14.1245 C.3     1  UNL1        0.0264
     23 C          66.3369   92.9073   13.4745 C.3     1  UNL1        0.0047
     24 C          66.2447   93.5356   12.1156 C.3     1  UNL1        0.0003
     25 C          66.4989   92.7105   10.8889 C.3     1  UNL1        0.0000
     26 C          68.4639   92.3657    9.2247 C.3     1  UNL1        0.0000
     27 C          67.8811   92.2061   10.5975 C.3     1  UNL1        0.0000
@<TRIPOS>BOND
     1    26    27    1
     2    27    25    1
     3    25    24    1
     4    24    23    1
     5    23    22    1
     6    22     1    1
     7     1     2   ar
     8     2     3   ar
     9     3     4   ar
    10     4     5   ar
    11     5     6   ar
    12     5     7    2
    13     7     8    1
    14     8     9    2
    15     8    10    1
    16    10    11    2
    17    11    12    1
    18    12    15    1
    19    15    16   ar
    20    16    17   ar
    21    17    18   ar
    22    18    19   ar
    23    19    20   ar
    24    20    21    1
    25    12    13    2
    26    13    14    1
    27     6     1   ar
    28    14    10    1
    29    14     4    2
    30    20    15   ar
@<TRIPOS>MOLECULE
*****
 27 30 0 0 0
SMALL
GASTEIGER

@<TRIPOS>ATOM
      1 C          59.4288   89.0198    7.3438 C.ar    1  UNL1       -0.0209
      2 C          59.3046   87.5252    7.3728 C.ar    1  UNL1       -0.0041
      3 C          60.0222   86.7333    8.4254 C.ar    1  UNL1        0.0048
      4 C          60.8640   87.4359    9.4490 C.ar    1  UNL1        0.0623
      5 C          60.9882   88.9304    9.4199 C.ar    1  UNL1        0.0771
      6 C          60.2706   89.7224    8.3673 C.ar    1  UNL1        0.0125
      7 N          61.8300   89.6331   10.4435 N.am    1  UNL1       -0.1721
      8 C          62.5475   88.8412   11.4961 C.2     1  UNL1        0.3160
      9 O          63.3893   89.5438   12.5197 O.2     1  UNL1       -0.2638
     10 C          62.4233   87.3466   11.5251 C.2     1  UNL1        0.2907
     11 N          63.0092   86.3083   12.4353 N.2     1  UNL1       -0.0256
     12 C          62.5296   84.9639   11.9743 C.2     1  UNL1        0.3765
     13 N          61.6472   85.1714   10.7792 N.2     1  UNL1       -0.0302
     14 C          61.5815   86.6440   10.5016 C.2     1  UNL1        0.2419
     15 C          62.8722   83.6438   12.5988 C.ar    1  UNL1        0.0989
     16 C          62.2167   83.2287   13.8825 C.ar    1  UNL1        0.0085
     17 C          62.5593   81.9086   14.5070 C.ar    1  UNL1        0.0003
     18 C          63.5574   81.0036   13.8477 C.ar    1  UNL1        0.0009
     19 C          64.2130   81.4187   12.5640 C.ar    1  UNL1        0.0116
     20 C          63.8704   82.7388   11.9396 C.ar    1  UNL1        0.0651
     21 CL         64.5259   83.1539   10.6558 Cl      1  UNL1       -0.0820
     22 C          58.7113   89.8117    6.2912 C.3     1  UNL1        0.0264
     23 C          59.4920   90.6289    5.3050 C.3     1  UNL1        0.0047
     24 C          58.8694   91.8391    4.6743 C.3     1  UNL1        0.0003
     25 C          59.7280   92.8319    3.9480 C.3     1  UNL1        0.0000
     26 C          60.1377   94.1031    1.7196 C.3     1  UNL1        0.0000
     27 C          59.7468   92.8517    2.4483 C.3     1  UNL1        0.0000
@<TRIPOS>BOND
     1    26    27    1
     2    27    25    1
     3    25    24    1
     4    24    23    1
     5    23    22    1
     6    22     1    1
     7     1     2   ar
     8     2     3   ar
     9     3     4   ar
    10     4     5   ar
    11     5     6   ar
    12     5     7    2
    13     7     8    1
    14     8     9    2
    15     8    10    1
    16    10    11    2
    17    11    12    1
    18    12    15    1
    19    15    16   ar
    20    16    17   ar
    21    17    18   ar
    22    18    19   ar
    23    19    20   ar
    24    20    21    1
    25    12    13    2
    26    13    14    1
    27     6     1   ar
    28    14    10    1
    29    14     4    2
    30    20    15   ar
@<TRIPOS>MOLECULE
*****
 27 30 0 0 0
SMALL
GASTEIGER

@<TRIPOS>ATOM
      1 C          63.0319   82.8083   12.1513 C.ar    1  UNL1       -0.0209
      2 C          63.8341   83.2817   13.3271 C.ar    1  UNL1       -0.0041
      3 C          63.9947   84.7510   13.5829 C.ar    1  UNL1        0.0048
      4 C          63.3531   85.7469   12.6628 C.ar    1  UNL1        0.0623
      5 C          62.5510   85.2735   11.4870 C.ar    1  UNL1        0.0771
      6 C          62.3904   83.8042   11.2313 C.ar    1  UNL1        0.0125
      7 N          61.9094   86.2695   10.5669 N.am    1  UNL1       -0.1721
      8 C          62.0700   87.7388   10.8227 C.2     1  UNL1        0.3160
      9 O          61.4285   88.7347    9.9026 O.2     1  UNL1       -0.2638
     10 C          62.8722   88.2121   11.9985 C.2     1  UNL1        0.2907
     11 N          63.2026   89.5865   12.5002 N.2     1  UNL1       -0.0256
     12 C          64.0483   89.4401   13.7304 C.2     1  UNL1        0.3765
     13 N          64.2406   87.9751   13.9889 N.2     1  UNL1       -0.0302
     14 C          63.5137   87.2162   12.9186 C.2     1  UNL1        0.2419
     15 C          64.6041   90.5617   14.5569 C.ar    1  UNL1        0.0989
     16 C          65.7054   91.4214   14.0108 C.ar    1  UNL1        0.0085
     17 C          66.2611   92.5430   14.8373 C.ar    1  UNL1        0.0003
     18 C          65.7157   92.8048   16.2099 C.ar    1  UNL1        0.0009
     19 C          64.6145   91.9452   16.7559 C.ar    1  UNL1        0.0116
     20 C          64.0587   90.8236   15.9294 C.ar    1  UNL1        0.0651
     21 CL         62.9574   89.9638   16.4755 Cl      1  UNL1       -0.0820
     22 C          62.8713   81.3390   11.8956 C.3     1  UNL1        0.0264
     23 C          62.9286   80.3683   13.0377 C.3     1  UNL1        0.0047
     24 C          61.6592   79.8592   13.6537 C.3     1  UNL1        0.0003
     25 C          60.6275   80.8267   14.1534 C.3     1  UNL1        0.0000
     26 C          58.7954   79.0512   14.6445 C.3     1  UNL1        0.0000
     27 C          59.1819   80.4281   14.1920 C.3     1  UNL1        0.0000
@<TRIPOS>BOND
     1    26    27    1
     2    27    25    1
     3    25    24    1
     4    24    23    1
     5    23    22    1
     6    22     1    1
     7     1     2   ar
     8     2     3   ar
     9     3     4   ar
    10     4     5   ar
    11     5     6   ar
    12     5     7    2
    13     7     8    1
    14     8     9    2
    15     8    10    1
    16    10    11    2
    17    11    12    1
    18    12    15    1
    19    15    16   ar
    20    16    17   ar
    21    17    18   ar
    22    18    19   ar
    23    19    20   ar
    24    20    21    1
    25    12    13    2
    26    13    14    1
    27     6     1   ar
    28    14    10    1
    29    14     4    2
    30    20    15   ar
@<TRIPOS>MOLECULE
*****
 27 30 0 0 0
SMALL
GASTEIGER

@<TRIPOS>ATOM
      1 C          60.1625   88.1930    9.1054 C.ar    1  UNL1       -0.0209
      2 C          60.6860   89.5933    9.2271 C.ar    1  UNL1       -0.0041
      3 C          61.6923   89.9283   10.2879 C.ar    1  UNL1        0.0048
      4 C          62.1751   88.8629   11.2269 C.ar    1  UNL1        0.0623
      5 C          61.6515   87.4626   11.1052 C.ar    1  UNL1        0.0771
      6 C          60.6452   87.1276   10.0445 C.ar    1  UNL1        0.0125
      7 N          62.1343   86.3971   12.0443 N.am    1  UNL1       -0.1721
      8 C          63.1406   86.7321   13.1051 C.2     1  UNL1        0.3160
      9 O          63.6233   85.6667   14.0441 O.2     1  UNL1       -0.2638
     10 C          63.6641   88.1326   13.2267 C.2     1  UNL1        0.2907
     11 N          64.6533   88.7561   14.1662 N.2     1  UNL1       -0.0256
     12 C          64.7819   90.2070   13.8077 C.2     1  UNL1        0.3765
     13 N          63.8722   90.4800   12.6467 N.2     1  UNL1       -0.0302
     14 C          63.1814   89.1979   12.2877 C.2     1  UNL1        0.2419
     15 C          65.6652   91.2089   14.4904 C.ar    1  UNL1        0.0989
     16 C          66.9698   91.6070   13.8662 C.ar    1  UNL1        0.0085
     17 C          67.8530   92.6089   14.5489 C.ar    1  UNL1        0.0003
     18 C          67.4316   93.2127   15.8558 C.ar    1  UNL1        0.0009
     19 C          66.1271   92.8146   16.4799 C.ar    1  UNL1        0.0116
     20 C          65.2439   91.8127   15.7972 C.ar    1  UNL1        0.0651
     21 CL         63.9392   91.4146   16.4214 Cl      1  UNL1       -0.0820
     22 C          59.1562   87.8580    8.0447 C.3     1  UNL1        0.0264
     23 C          59.3874   86.6888    7.1340 C.3     1  UNL1        0.0047
     24 C          60.2765   85.5623    7.5706 C.3     1  UNL1        0.0003
     25 C          61.2801   84.9858    6.6163 C.3     1  UNL1        0.0000
     26 C          63.1385   85.2454    8.4132 C.3     1  UNL1        0.0000
     27 C          62.7071   84.8106    7.0440 C.3     1  UNL1        0.0000
@<TRIPOS>BOND
     1    26    27    1
     2    27    25    1
     3    25    24    1
     4    24    23    1
     5    23    22    1
     6    22     1    1
     7     1     2   ar
     8     2     3   ar
     9     3     4   ar
    10     4     5   ar
    11     5     6   ar
    12     5     7    2
    13     7     8    1
    14     8     9    2
    15     8    10    1
    16    10    11    2
    17    11    12    1
    18    12    15    1
    19    15    16   ar
    20    16    17   ar
    21    17    18   ar
    22    18    19   ar
    23    19    20   ar
    24    20    21    1
    25    12    13    2
    26    13    14    1
    27     6     1   ar
    28    14    10    1
    29    14     4    2
    30    20    15   ar
@<TRIPOS>MOLECULE
*****
 27 30 0 0 0
SMALL
GASTEIGER

@<TRIPOS>ATOM
      1 C          62.9655   83.4810   14.0528 C.ar    1  UNL1       -0.0209
      2 C          63.9433   84.2212   14.9166 C.ar    1  UNL1       -0.0041
      3 C          64.2090   85.6769   14.6708 C.ar    1  UNL1        0.0048
      4 C          63.4970   86.3924   13.5613 C.ar    1  UNL1        0.0623
      5 C          62.5193   85.6522   12.6976 C.ar    1  UNL1        0.0771
      6 C          62.2535   84.1965   12.9433 C.ar    1  UNL1        0.0125
      7 N          61.8072   86.3677   11.5880 N.am    1  UNL1       -0.1721
      8 C          62.0730   87.8234   11.3422 C.2     1  UNL1        0.3160
      9 O          61.3610   88.5389   10.2327 O.2     1  UNL1       -0.2638
     10 C          63.0508   88.5636   12.2060 C.2     1  UNL1        0.2907
     11 N          63.5135   89.9904   12.2024 N.2     1  UNL1       -0.0256
     12 C          64.5116   90.1567   13.3098 C.2     1  UNL1        0.3765
     13 N          64.6656   88.8327   13.9977 N.2     1  UNL1       -0.0302
     14 C          63.7628   87.8481   13.3155 C.2     1  UNL1        0.2419
     15 C          65.2295   91.4245   13.6666 C.ar    1  UNL1        0.0989
     16 C          65.6320   91.6840   15.0881 C.ar    1  UNL1        0.0085
     17 C          66.3499   92.9517   15.4448 C.ar    1  UNL1        0.0003
     18 C          66.6654   93.9600   14.3801 C.ar    1  UNL1        0.0009
     19 C          66.2630   93.7006   12.9586 C.ar    1  UNL1        0.0116
     20 C          65.5450   92.4328   12.6018 C.ar    1  UNL1        0.0651
     21 CL         65.1426   92.1733   11.1803 Cl      1  UNL1       -0.0820
     22 C          62.6998   82.0254   14.2986 C.3     1  UNL1        0.0264
     23 C          62.1403   81.1694   13.2012 C.3     1  UNL1        0.0047
     24 C          63.0440   80.6432   12.1258 C.3     1  UNL1        0.0003
     25 C          63.1298   81.3504   10.8057 C.3     1  UNL1        0.0000
     26 C          63.8520   83.6208    9.7697 C.3     1  UNL1        0.0000
     27 C          64.1742   82.4043   10.5860 C.3     1  UNL1        0.0000
@<TRIPOS>BOND
     1    26    27    1
     2    27    25    1
     3    25    24    1
     4    24    23    1
     5    23    22    1
     6    22     1    1
     7     1     2   ar
     8     2     3   ar
     9     3     4   ar
    10     4     5   ar
    11     5     6   ar
    12     5     7    2
    13     7     8    1
    14     8     9    2
    15     8    10    1
    16    10    11    2
    17    11    12    1
    18    12    15    1
    19    15    16   ar
    20    16    17   ar
    21    17    18   ar
    22    18    19   ar
    23    19    20   ar
    24    20    21    1
    25    12    13    2
    26    13    14    1
    27     6     1   ar
    28    14    10    1
    29    14     4    2
    30    20    15   ar
@<TRIPOS>MOLECULE
*****
 27 30 0 0 0
SMALL
GASTEIGER

@<TRIPOS>ATOM
      1 C          64.3390   90.8714   15.0372 C.ar    1  UNL1       -0.0209
      2 C          63.8842   91.2202   13.6511 C.ar    1  UNL1       -0.0041
      3 C          63.4908   90.1333   12.6951 C.ar    1  UNL1        0.0048
      4 C          63.5522   88.6977   13.1252 C.ar    1  UNL1        0.0623
      5 C          64.0070   88.3489   14.5114 C.ar    1  UNL1        0.0771
      6 C          64.4004   89.4357   15.4674 C.ar    1  UNL1        0.0125
      7 N          64.0684   86.9131   14.9416 N.am    1  UNL1       -0.1721
      8 C          63.6750   85.8263   13.9856 C.2     1  UNL1        0.3160
      9 O          63.7363   84.3906   14.4157 O.2     1  UNL1       -0.2638
     10 C          63.2202   86.1751   12.5994 C.2     1  UNL1        0.2907
     11 N          62.7734   85.3262   11.4463 N.2     1  UNL1       -0.0256
     12 C          62.4359   86.2372   10.3034 C.2     1  UNL1        0.3765
     13 N          62.6741   87.6492   10.7502 N.2     1  UNL1       -0.0302
     14 C          63.1588   87.6108   12.1692 C.2     1  UNL1        0.2419
     15 C          61.9462   85.8111    8.9511 C.ar    1  UNL1        0.0989
     16 C          62.8383   85.0123    8.0478 C.ar    1  UNL1        0.0085
     17 C          62.3486   84.5862    6.6956 C.ar    1  UNL1        0.0003
     18 C          60.9667   84.9589    6.2467 C.ar    1  UNL1        0.0009
     19 C          60.0746   85.7576    7.1500 C.ar    1  UNL1        0.0116
     20 C          60.5643   86.1837    8.5022 C.ar    1  UNL1        0.0651
     21 CL         59.6721   86.9825    9.4056 Cl      1  UNL1       -0.0820
     22 C          64.7324   91.9583   15.9933 C.3     1  UNL1        0.0264
     23 C          66.0587   92.6431   15.8457 C.3     1  UNL1        0.0047
     24 C          67.2344   91.8905   15.2968 C.3     1  UNL1        0.0003
     25 C          67.5296   91.9291   13.8266 C.3     1  UNL1        0.0000
     26 C          66.7104   92.6496   11.4687 C.3     1  UNL1        0.0000
     27 C          66.8124   92.9063   12.9430 C.3     1  UNL1        0.0000
@<TRIPOS>BOND
     1    26    27    1
     2    27    25    1
     3    25    24    1
     4    24    23    1
     5    23    22    1
     6    22     1    1
     7     1     2   ar
     8     2     3   ar
     9     3     4   ar
    10     4     5   ar
    11     5     6   ar
    12     5     7    2
    13     7     8    1
    14     8     9    2
    15     8    10    1
    16    10    11    2
    17    11    12    1
    18    12    15    1
    19    15    16   ar
    20    16    17   ar
    21    17    18   ar
    22    18    19   ar
    23    19    20   ar
    24    20    21    1
    25    12    13    2
    26    13    14    1
    27     6     1   ar
    28    14    10    1
    29    14     4    2
    30    20    15   ar
@<TRIPOS>MOLECULE
*****
 27 30 0 0 0
SMALL
GASTEIGER

@<TRIPOS>ATOM
      1 C          65.5114   92.0935   14.3773 C.ar    1  UNL1       -0.0209
      2 C          64.8703   92.3738   13.0505 C.ar    1  UNL1       -0.0041
      3 C          64.1293   91.2861   12.3309 C.ar    1  UNL1        0.0048
      4 C          64.0294   89.9181   12.9381 C.ar    1  UNL1        0.0623
      5 C          64.6705   89.6379   14.2649 C.ar    1  UNL1        0.0771
      6 C          65.4115   90.7256   14.9844 C.ar    1  UNL1        0.0125
      7 N          64.5706   88.2699   14.8721 N.am    1  UNL1       -0.1721
      8 C          63.8296   87.1822   14.1525 C.2     1  UNL1        0.3160
      9 O          63.7297   85.8143   14.7597 O.2     1  UNL1       -0.2638
     10 C          63.1885   87.4625   12.8257 C.2     1  UNL1        0.2907
     11 N          62.3987   86.5964   11.8897 N.2     1  UNL1       -0.0256
     12 C          62.0105   87.4291   10.7040 C.2     1  UNL1        0.3765
     13 N          62.5603   88.8098   10.9072 N.2     1  UNL1       -0.0302
     14 C          63.2884   88.8304   12.2185 C.2     1  UNL1        0.2419
     15 C          61.2125   86.9629    9.5225 C.ar    1  UNL1        0.0989
     16 C          59.8228   87.4832    9.3035 C.ar    1  UNL1        0.0085
     17 C          59.0249   87.0170    8.1221 C.ar    1  UNL1        0.0003
     18 C          59.6166   86.0304    7.1595 C.ar    1  UNL1        0.0009
     19 C          61.0063   85.5101    7.3784 C.ar    1  UNL1        0.0116
     20 C          61.8043   85.9763    8.5599 C.ar    1  UNL1        0.0651
     21 CL         63.1940   85.4560    8.7789 Cl      1  UNL1       -0.0820
     22 C          66.2524   93.1812   15.0969 C.3     1  UNL1        0.0264
     23 C          67.3998   92.8367   15.9995 C.3     1  UNL1        0.0047
     24 C          68.6252   92.1793   15.4373 C.3     1  UNL1        0.0003
     25 C          69.0410   92.4531   14.0222 C.3     1  UNL1        0.0000
     26 C          68.2782   92.0213   11.5765 C.3     1  UNL1        0.0000
     27 C          68.6584   91.4987   12.9301 C.3     1  UNL1        0.0000
@<TRIPOS>BOND
     1    26    27    1
     2    27    25    1
     3    25    24    1
     4    24    23    1
     5    23    22    1
     6    22     1    1
     7     1     2   ar
     8     2     3   ar
     9     3     4   ar
    10     4     5   ar
    11     5     6   ar
    12     5     7    2
    13     7     8    1
    14     8     9    2
    15     8    10    1
    16    10    11    2
    17    11    12    1
    18    12    15    1
    19    15    16   ar
    20    16    17   ar
    21    17    18   ar
    22    18    19   ar
    23    19    20   ar
    24    20    21    1
    25    12    13    2
    26    13    14    1
    27     6     1   ar
    28    14    10    1
    29    14     4    2
    30    20    15   ar
@<TRIPOS>MOLECULE
*****
 27 30 0 0 0
SMALL
GASTEIGER

@<TRIPOS>ATOM
      1 C          62.7425   89.6935   11.2025 C.ar    1  UNL1       -0.0209
      2 C          62.3285   88.6840   10.1732 C.ar    1  UNL1       -0.0041
      3 C          62.4490   87.2184   10.4691 C.ar    1  UNL1        0.0048
      4 C          62.9836   86.7623   11.7943 C.ar    1  UNL1        0.0623
      5 C          63.3976   87.7718   12.8236 C.ar    1  UNL1        0.0771
      6 C          63.2771   89.2374   12.5277 C.ar    1  UNL1        0.0125
      7 N          63.9323   87.3157   14.1489 N.am    1  UNL1       -0.1721
      8 C          64.0528   85.8501   14.4448 C.2     1  UNL1        0.3160
      9 O          64.5874   85.3940   15.7699 O.2     1  UNL1       -0.2638
     10 C          63.6387   84.8406   13.4154 C.2     1  UNL1        0.2907
     11 N          63.6428   83.3407   13.4222 N.2     1  UNL1       -0.0256
     12 C          63.1107   82.8697   12.1012 C.2     1  UNL1        0.3765
     13 N          62.7778   84.0786   11.2780 N.2     1  UNL1       -0.0302
     14 C          63.1042   85.2967   12.0902 C.2     1  UNL1        0.2419
     15 C          62.9413   81.4407   11.6778 C.ar    1  UNL1        0.0989
     16 C          63.1412   81.0551   10.2420 C.ar    1  UNL1        0.0085
     17 C          62.9718   79.6262    9.8187 C.ar    1  UNL1        0.0003
     18 C          62.6024   78.5828   10.8310 C.ar    1  UNL1        0.0009
     19 C          62.4025   78.9683   12.2668 C.ar    1  UNL1        0.0116
     20 C          62.5719   80.3973   12.6901 C.ar    1  UNL1        0.0651
     21 CL         62.3720   80.7829   14.1259 Cl      1  UNL1       -0.0820
     22 C          62.6220   91.1590   10.9066 C.3     1  UNL1        0.0264
     23 C          63.7555   91.8866   10.2465 C.3     1  UNL1        0.0047
     24 C          64.9655   92.2720   11.0448 C.3     1  UNL1        0.0003
     25 C          66.1096   92.9777   10.3791 C.3     1  UNL1        0.0000
     26 C          68.4360   92.7696    9.2413 C.3     1  UNL1        0.0000
     27 C          67.4431   92.3006   10.2630 C.3     1  UNL1        0.0000
@<TRIPOS>BOND
     1    26    27    1
     2    27    25    1
     3    25    24    1
     4    24    23    1
     5    23    22    1
     6    22     1    1
     7     1     2   ar
     8     2     3   ar
     9     3     4   ar
    10     4     5   ar
    11     5     6   ar
    12     5     7    2
    13     7     8    1
    14     8     9    2
    15     8    10    1
    16    10    11    2
    17    11    12    1
    18    12    15    1
    19    15    16   ar
    20    16    17   ar
    21    17    18   ar
    22    18    19   ar
    23    19    20   ar
    24    20    21    1
    25    12    13    2
    26    13    14    1
    27     6     1   ar
    28    14    10    1
    29    14     4    2
    30    20    15   ar
