@<TRIPOS>MOLECULE
*****
 35 39 0 0 0
SMALL
GASTEIGER

@<TRIPOS>ATOM
      1 N          60.6125   90.1705    9.7143 N.pl3   1  UNL1       -0.2802
      2 H          59.8652   90.7941    9.5664 H       1  UNL1        0.1552
      3 C          60.6035   88.8206    9.0604 C.ar    1  UNL1        0.2208
      4 N          59.6449   88.5351    7.9426 N.ar    1  UNL1       -0.2111
      5 C          59.6358   87.1851    7.2887 C.ar    1  UNL1        0.1147
      6 C          60.5854   86.1207    7.7527 C.ar    1  UNL1        0.0946
      7 CL         60.5763   84.7707    7.0988 Cl      1  UNL1       -0.0790
      8 C          61.5441   86.4062    8.8706 C.ar    1  UNL1        0.0992
      9 N          61.5530   87.7561    9.5244 N.ar    1  UNL1       -0.2126
     10 C          62.4936   85.3417    9.3345 C.ar    1  UNL1        0.0572
     11 C          63.3769   84.5049    8.4573 C.ar    1  UNL1        0.1235
     12 N          64.1558   83.5732    9.3378 N.ar    1  UNL1       -0.1634
     13 N          63.7539   83.8343   10.7592 N.ar    1  UNL1       -0.2281
     14 C          64.1906   83.2179   12.0551 C.ar    1  UNL1        0.1004
     15 C          63.6001   83.6945   13.3489 C.ar    1  UNL1        0.0207
     16 C          62.5728   84.7875   13.3469 C.ar    1  UNL1        0.0031
     17 C          62.1361   85.4039   12.0510 C.ar    1  UNL1        0.0193
     18 C          62.7266   84.9273   10.7572 C.ar    1  UNL1        0.0858
     19 C          61.7714   90.1723   12.0396 C.ar    1  UNL1        0.1533
     20 C          62.9191   90.5723   12.9187 C.ar    1  UNL1        0.0527
     21 C          64.0556   91.3703   12.3517 C.ar    1  UNL1        0.0511
     22 C          64.0444   91.7684   10.9055 C.ar    1  UNL1        0.0160
     23 C          62.8967   91.3685   10.0264 C.ar    1  UNL1        0.0190
     24 C          61.7601   90.5704   10.5934 C.ar    1  UNL1        0.0850
     25 N          65.2032   91.7702   13.2308 N.pl3   1  UNL1       -0.3040
     26 C          65.7989   93.1415   13.1090 C.3     1  UNL1        0.1123
     27 C          66.9466   93.5415   13.9882 C.3     1  UNL1        0.1148
     28 N          67.4985   92.5702   14.9891 N.am    1  UNL1       -0.2760
     29 C          68.6462   92.9701   15.8683 C.2     1  UNL1        0.2262
     30 C          69.2419   94.3414   15.7464 C.3     1  UNL1        0.0948
     31 O          69.1982   91.9989   16.8693 O.2     1  UNL1       -0.2749
     32 C          66.9028   91.1990   15.1109 C.3     1  UNL1        0.1148
     33 C          65.7552   90.7990   14.2318 C.3     1  UNL1        0.1123
     34 C          59.2210   89.8294   12.3974 C.3     1  UNL1        0.2525
     35 O          60.6349   89.3743   12.6066 O.3     1  UNL1       -0.4701
@<TRIPOS>BOND
     1    34    35    1
     2    35    19    1
     3    19    20   ar
     4    20    21   ar
     5    21    25    1
     6    25    26    1
     7    26    27    1
     8    27    28    1
     9    28    29   am
    10    29    30    1
    11    29    31    2
    12    28    32    1
    13    32    33    1
    14    21    22   ar
    15    22    23   ar
    16    23    24   ar
    17    24     1    1
    18     1     3    1
    19     3     4   ar
    20     4     5   ar
    21     5     6   ar
    22     6     7    1
    23     6     8   ar
    24     8    10    1
    25    10    11   ar
    26    11    12   ar
    27    12    13   ar
    28    13    14   ar
    29    14    15   ar
    30    15    16   ar
    31    16    17   ar
    32    17    18   ar
    33     8     9   ar
    34    24    19   ar
    35     9     3   ar
    36    33    25    1
    37    18    10   ar
    38    18    13   ar
    39     1     2    1
@<TRIPOS>MOLECULE
*****
 35 39 0 0 0
SMALL
GASTEIGER

@<TRIPOS>ATOM
      1 N          62.6012   90.4237   12.3914 N.pl3   1  UNL1       -0.2802
      2 H          61.7605   90.9133   12.2403 H       1  UNL1        0.1552
      3 C          63.8444   91.1694   12.7767 C.ar    1  UNL1        0.2208
      4 N          64.1987   91.3394   14.2243 N.ar    1  UNL1       -0.2111
      5 C          65.4418   92.0851   14.6096 C.ar    1  UNL1        0.1147
      6 C          66.3307   92.6608   13.5473 C.ar    1  UNL1        0.0946
      7 CL         67.5739   93.4064   13.9326 Cl      1  UNL1       -0.0790
      8 C          65.9764   92.4907   12.0996 C.ar    1  UNL1        0.0992
      9 N          64.7333   91.7451   11.7144 N.ar    1  UNL1       -0.2126
     10 C          66.8653   93.0664   11.0373 C.ar    1  UNL1        0.0572
     11 C          68.1039   92.4275   10.4826 C.ar    1  UNL1        0.1235
     12 N          68.6758   93.3483    9.4457 N.ar    1  UNL1       -0.1634
     13 N          67.7906   94.5562    9.3595 N.ar    1  UNL1       -0.2281
     14 C          67.8589   95.7922    8.5125 C.ar    1  UNL1        0.1004
     15 C          66.8082   96.8540    8.6491 C.ar    1  UNL1        0.0207
     16 C          65.6893   96.6797    9.6328 C.ar    1  UNL1        0.0031
     17 C          65.6210   95.4437   10.4799 C.ar    1  UNL1        0.0193
     18 C          66.6717   94.3820   10.3432 C.ar    1  UNL1        0.0858
     19 C          61.7682   88.2622   11.2151 C.ar    1  UNL1        0.1533
     20 C          61.8060   86.7706   11.0600 C.ar    1  UNL1        0.0527
     21 C          62.7144   85.9492   11.9262 C.ar    1  UNL1        0.0511
     22 C          63.5850   86.6194   12.9474 C.ar    1  UNL1        0.0160
     23 C          63.5473   88.1109   13.1025 C.ar    1  UNL1        0.0190
     24 C          62.6389   88.9323   12.2363 C.ar    1  UNL1        0.0850
     25 N          62.7520   84.4578   11.7711 N.pl3   1  UNL1       -0.3040
     26 C          63.0425   83.8503   10.4307 C.3     1  UNL1        0.1123
     27 C          63.0802   82.3588   10.2755 C.3     1  UNL1        0.1148
     28 N          62.8274   81.4749   11.4607 N.am    1  UNL1       -0.2760
     29 C          62.8651   79.9833   11.3056 C.2     1  UNL1        0.2262
     30 C          63.1555   79.3759    9.9652 C.3     1  UNL1        0.0948
     31 O          62.6123   79.0994   12.4907 O.2     1  UNL1       -0.2749
     32 C          62.5370   82.0824   12.8011 C.3     1  UNL1        0.1148
     33 C          62.4993   83.5738   12.9563 C.3     1  UNL1        0.1123
     34 C          60.4213   88.5598    9.0135 C.3     1  UNL1        0.2525
     35 O          60.8599   89.0835   10.3489 O.3     1  UNL1       -0.4701
@<TRIPOS>BOND
     1    34    35    1
     2    35    19    1
     3    19    20   ar
     4    20    21   ar
     5    21    25    1
     6    25    26    1
     7    26    27    1
     8    27    28    1
     9    28    29   am
    10    29    30    1
    11    29    31    2
    12    28    32    1
    13    32    33    1
    14    21    22   ar
    15    22    23   ar
    16    23    24   ar
    17    24     1    1
    18     1     3    1
    19     3     4   ar
    20     4     5   ar
    21     5     6   ar
    22     6     7    1
    23     6     8   ar
    24     8    10    1
    25    10    11   ar
    26    11    12   ar
    27    12    13   ar
    28    13    14   ar
    29    14    15   ar
    30    15    16   ar
    31    16    17   ar
    32    17    18   ar
    33     8     9   ar
    34    24    19   ar
    35     9     3   ar
    36    33    25    1
    37    18    10   ar
    38    18    13   ar
    39     1     2    1
@<TRIPOS>MOLECULE
*****
 35 39 0 0 0
SMALL
GASTEIGER

@<TRIPOS>ATOM
      1 N          58.8160   90.0944    6.7918 N.pl3   1  UNL1       -0.2802
      2 H          57.9100   90.3440    7.0853 H       1  UNL1        0.1552
      3 C          59.5541   88.9923    7.4923 C.ar    1  UNL1        0.2208
      4 N          59.4504   87.5828    6.9899 N.ar    1  UNL1       -0.2111
      5 C          60.1886   86.4807    7.6904 C.ar    1  UNL1        0.1147
      6 C          61.0305   86.7883    8.8932 C.ar    1  UNL1        0.0946
      7 CL         61.7686   85.6862    9.5936 Cl      1  UNL1       -0.0790
      8 C          61.1342   88.1979    9.3955 C.ar    1  UNL1        0.0992
      9 N          60.3960   89.2999    8.6951 N.ar    1  UNL1       -0.2126
     10 C          61.9760   88.5055   10.5983 C.ar    1  UNL1        0.0572
     11 C          62.1557   87.6228   11.7978 C.ar    1  UNL1        0.1235
     12 N          63.0767   88.3215   12.7535 N.ar    1  UNL1       -0.1634
     13 N          63.4663   89.6360   12.1448 N.ar    1  UNL1       -0.2281
     14 C          64.3525   90.7440   12.6313 C.ar    1  UNL1        0.1004
     15 C          64.5585   91.9657   11.7858 C.ar    1  UNL1        0.0207
     16 C          63.8782   92.0794   10.4538 C.ar    1  UNL1        0.0031
     17 C          62.9920   90.9714    9.9673 C.ar    1  UNL1        0.0193
     18 C          62.7860   89.7496   10.8128 C.ar    1  UNL1        0.0858
     19 C          58.6696   91.8157    4.8513 C.ar    1  UNL1        0.1533
     20 C          59.3118   92.5373    3.7037 C.ar    1  UNL1        0.0527
     21 C          60.7425   92.2592    3.3491 C.ar    1  UNL1        0.0511
     22 C          61.5310   91.2594    4.1420 C.ar    1  UNL1        0.0160
     23 C          60.8888   90.5379    5.2896 C.ar    1  UNL1        0.0190
     24 C          59.4581   90.8160    5.6443 C.ar    1  UNL1        0.0850
     25 N          61.3846   92.9808    2.2015 N.pl3   1  UNL1       -0.3040
     26 C          62.8680   93.2031    2.1911 C.3     1  UNL1        0.1123
     27 C          63.5102   93.9247    1.0435 C.3     1  UNL1        0.1148
     28 N          62.6690   94.4240   -0.0935 N.am    1  UNL1       -0.2760
     29 C          63.3111   95.1457   -1.2412 C.2     1  UNL1        0.2262
     30 C          64.7945   95.3680   -1.2516 C.3     1  UNL1        0.0948
     31 O          62.4699   95.6450   -2.3782 O.2     1  UNL1       -0.2749
     32 C          61.1856   94.2017   -0.0831 C.3     1  UNL1        0.1148
     33 C          60.5434   93.4801    1.0644 C.3     1  UNL1        0.1123
     34 C          56.1848   91.0615    4.9356 C.3     1  UNL1        0.2525
     35 O          57.2389   92.0939    5.2059 O.3     1  UNL1       -0.4701
@<TRIPOS>BOND
     1    34    35    1
     2    35    19    1
     3    19    20   ar
     4    20    21   ar
     5    21    25    1
     6    25    26    1
     7    26    27    1
     8    27    28    1
     9    28    29   am
    10    29    30    1
    11    29    31    2
    12    28    32    1
    13    32    33    1
    14    21    22   ar
    15    22    23   ar
    16    23    24   ar
    17    24     1    1
    18     1     3    1
    19     3     4   ar
    20     4     5   ar
    21     5     6   ar
    22     6     7    1
    23     6     8   ar
    24     8    10    1
    25    10    11   ar
    26    11    12   ar
    27    12    13   ar
    28    13    14   ar
    29    14    15   ar
    30    15    16   ar
    31    16    17   ar
    32    17    18   ar
    33     8     9   ar
    34    24    19   ar
    35     9     3   ar
    36    33    25    1
    37    18    10   ar
    38    18    13   ar
    39     1     2    1
@<TRIPOS>MOLECULE
*****
 35 39 0 0 0
SMALL
GASTEIGER

@<TRIPOS>ATOM
      1 N          62.7246   90.5747   12.4624 N.pl3   1  UNL1       -0.2802
      2 H          61.8902   91.0701   12.2964 H       1  UNL1        0.1552
      3 C          63.9770   91.3157   12.8261 C.ar    1  UNL1        0.2208
      4 N          64.3562   91.4855   14.2674 N.ar    1  UNL1       -0.2111
      5 C          65.6086   92.2265   14.6312 C.ar    1  UNL1        0.1147
      6 C          66.4818   92.7977   13.5536 C.ar    1  UNL1        0.0946
      7 CL         67.7343   93.5388   13.9173 Cl      1  UNL1       -0.0790
      8 C          66.1026   92.6279   12.1122 C.ar    1  UNL1        0.0992
      9 N          64.8503   91.8869   11.7486 N.ar    1  UNL1       -0.2126
     10 C          66.9759   93.1991   11.0346 C.ar    1  UNL1        0.0572
     11 C          68.2577   92.6047   10.5311 C.ar    1  UNL1        0.1235
     12 N          68.7946   93.5033    9.4567 N.ar    1  UNL1       -0.1634
     13 N          67.8446   94.6530    9.2962 N.ar    1  UNL1       -0.2281
     14 C          67.8579   95.8467    8.3881 C.ar    1  UNL1        0.1004
     15 C          66.7471   96.8525    8.4552 C.ar    1  UNL1        0.0207
     16 C          65.6231   96.6645    9.4305 C.ar    1  UNL1        0.0031
     17 C          65.6098   95.4707   10.3386 C.ar    1  UNL1        0.0193
     18 C          66.7206   94.4650   10.2715 C.ar    1  UNL1        0.0858
     19 C          63.4295   88.2575   13.4025 C.ar    1  UNL1        0.1533
     20 C          63.4483   86.7616   13.2916 C.ar    1  UNL1        0.0527
     21 C          62.7811   86.0873   12.1296 C.ar    1  UNL1        0.0511
     22 C          62.0951   86.9087   11.0786 C.ar    1  UNL1        0.0160
     23 C          62.0763   88.4045   11.1896 C.ar    1  UNL1        0.0190
     24 C          62.7435   89.0789   12.3515 C.ar    1  UNL1        0.0850
     25 N          62.8000   84.5916   12.0187 N.pl3   1  UNL1       -0.3040
     26 C          62.5214   83.7465   13.2263 C.3     1  UNL1        0.1123
     27 C          62.5403   82.2506   13.1155 C.3     1  UNL1        0.1148
     28 N          62.8377   81.6000   11.7972 N.am    1  UNL1       -0.2760
     29 C          62.8566   80.1042   11.6863 C.2     1  UNL1        0.2262
     30 C          62.5780   79.2591   12.8938 C.3     1  UNL1        0.0948
     31 O          63.1541   79.4535   10.3679 O.2     1  UNL1       -0.2749
     32 C          63.1163   82.4451   10.5896 C.3     1  UNL1        0.1148
     33 C          63.0975   83.9409   10.7004 C.3     1  UNL1        0.1123
     34 C          63.3888   89.0277   15.8835 C.3     1  UNL1        0.2525
     35 O          64.0967   88.9318   14.5645 O.3     1  UNL1       -0.4701
@<TRIPOS>BOND
     1    34    35    1
     2    35    19    1
     3    19    20   ar
     4    20    21   ar
     5    21    25    1
     6    25    26    1
     7    26    27    1
     8    27    28    1
     9    28    29   am
    10    29    30    1
    11    29    31    2
    12    28    32    1
    13    32    33    1
    14    21    22   ar
    15    22    23   ar
    16    23    24   ar
    17    24     1    1
    18     1     3    1
    19     3     4   ar
    20     4     5   ar
    21     5     6   ar
    22     6     7    1
    23     6     8   ar
    24     8    10    1
    25    10    11   ar
    26    11    12   ar
    27    12    13   ar
    28    13    14   ar
    29    14    15   ar
    30    15    16   ar
    31    16    17   ar
    32    17    18   ar
    33     8     9   ar
    34    24    19   ar
    35     9     3   ar
    36    33    25    1
    37    18    10   ar
    38    18    13   ar
    39     1     2    1
@<TRIPOS>MOLECULE
*****
 35 39 0 0 0
SMALL
GASTEIGER

@<TRIPOS>ATOM
      1 N          63.4745   88.8212   15.8066 N.pl3   1  UNL1       -0.2802
      2 H          63.0886   89.1767   16.6396 H       1  UNL1        0.1552
      3 C          63.4696   87.3436   15.5485 C.ar    1  UNL1        0.2208
      4 N          63.3638   86.3824   16.6952 N.ar    1  UNL1       -0.2111
      5 C          63.3589   84.9047   16.4372 C.ar    1  UNL1        0.1147
      6 C          63.4597   84.3883   15.0325 C.ar    1  UNL1        0.0946
      7 CL         63.4548   82.9107   14.7744 Cl      1  UNL1       -0.0790
      8 C          63.5654   85.3496   13.8857 C.ar    1  UNL1        0.0992
      9 N          63.5703   86.8272   14.1438 N.ar    1  UNL1       -0.2126
     10 C          63.6662   84.8332   12.4810 C.ar    1  UNL1        0.0572
     11 C          64.4856   83.6608   12.0294 C.ar    1  UNL1        0.1235
     12 N          64.2911   83.5016   10.5506 N.ar    1  UNL1       -0.1634
     13 N          63.3514   84.5756   10.0883 N.ar    1  UNL1       -0.2281
     14 C          62.7976   84.9105    8.7352 C.ar    1  UNL1        0.1004
     15 C          61.8576   86.0683    8.5751 C.ar    1  UNL1        0.0207
     16 C          61.4714   86.8913    9.7683 C.ar    1  UNL1        0.0031
     17 C          62.0252   86.5564   11.1214 C.ar    1  UNL1        0.0193
     18 C          62.9652   85.3986   11.2815 C.ar    1  UNL1        0.0858
     19 C          63.2735   90.1565   13.5870 C.ar    1  UNL1        0.1533
     20 C          63.8664   91.0926   12.5758 C.ar    1  UNL1        0.0527
     21 C          65.2532   91.6293   12.7732 C.ar    1  UNL1        0.0511
     22 C          66.0470   91.2299   13.9816 C.ar    1  UNL1        0.0160
     23 C          65.4541   90.2939   14.9927 C.ar    1  UNL1        0.0190
     24 C          64.0673   89.7572   14.7954 C.ar    1  UNL1        0.0850
     25 N          65.8460   92.5653   11.7621 N.pl3   1  UNL1       -0.3040
     26 C          65.6962   94.0478   11.9341 C.3     1  UNL1        0.1123
     27 C          66.2891   94.9839   10.9230 C.3     1  UNL1        0.1148
     28 N          67.0316   94.4374    9.7399 N.am    1  UNL1       -0.2760
     29 C          67.6245   95.3734    8.7287 C.2     1  UNL1        0.2262
     30 C          67.4747   96.8560    8.9008 C.3     1  UNL1        0.0948
     31 O          68.3671   94.8270    7.5455 O.2     1  UNL1       -0.2749
     32 C          67.1814   92.9549    9.5678 C.3     1  UNL1        0.1148
     33 C          66.5886   92.0188   10.5789 C.3     1  UNL1        0.1123
     34 C          61.1509   89.8949   12.1118 C.3     1  UNL1        0.2525
     35 O          61.8868   89.6199   13.3896 O.3     1  UNL1       -0.4701
@<TRIPOS>BOND
     1    34    35    1
     2    35    19    1
     3    19    20   ar
     4    20    21   ar
     5    21    25    1
     6    25    26    1
     7    26    27    1
     8    27    28    1
     9    28    29   am
    10    29    30    1
    11    29    31    2
    12    28    32    1
    13    32    33    1
    14    21    22   ar
    15    22    23   ar
    16    23    24   ar
    17    24     1    1
    18     1     3    1
    19     3     4   ar
    20     4     5   ar
    21     5     6   ar
    22     6     7    1
    23     6     8   ar
    24     8    10    1
    25    10    11   ar
    26    11    12   ar
    27    12    13   ar
    28    13    14   ar
    29    14    15   ar
    30    15    16   ar
    31    16    17   ar
    32    17    18   ar
    33     8     9   ar
    34    24    19   ar
    35     9     3   ar
    36    33    25    1
    37    18    10   ar
    38    18    13   ar
    39     1     2    1
