@<TRIPOS>MOLECULE
*****
 35 39 0 0 0
SMALL
GASTEIGER

@<TRIPOS>ATOM
      1 C          59.6302   90.7134    5.6900 C.ar    1  UNL1       -0.0024
      2 C          58.7414   91.6333    4.9066 C.ar    1  UNL1       -0.0013
      3 C          59.2651   92.3158    3.6778 C.ar    1  UNL1        0.0181
      4 C          60.6776   92.0784    3.2324 C.ar    1  UNL1        0.1056
      5 C          61.5665   91.1585    4.0159 C.ar    1  UNL1        0.0181
      6 C          61.0428   90.4760    5.2447 C.ar    1  UNL1       -0.0013
      7 S          61.2014   92.7609    2.0037 S.O2    1  UNL1        0.0071
      8 O          59.9888   93.6435    1.9770 O.2     1  UNL1       -0.1687
      9 O          62.4139   91.8784    2.0303 O.2     1  UNL1       -0.1687
     10 C          61.7251   93.4434    0.7749 C.3     1  UNL1        0.1366
     11 C          60.7730   94.0882   -0.1883 C.3     1  UNL1        0.0413
     12 C          61.2967   94.7707   -1.4171 C.3     1  UNL1        0.0738
     13 N          62.7725   94.8084   -1.6827 N.3     1  UNL1       -0.2737
     14 C          63.7246   94.1637   -0.7195 C.3     1  UNL1        0.0738
     15 C          63.2009   93.4811    0.5093 C.3     1  UNL1        0.0413
     16 C          63.2963   95.4909   -2.9114 C.3     1  UNL1        0.0625
     17 C          64.7291   95.9307   -2.9720 C.3     1  UNL1        0.0481
     18 C          65.2528   96.6132   -4.2007 C.3     1  UNL1        0.1435
     19 O          64.3438   96.8559   -5.3690 O.3     1  UNL1       -0.3537
     20 C          62.9110   96.4162   -5.3084 C.3     1  UNL1        0.1435
     21 C          62.3872   95.7336   -4.0796 C.3     1  UNL1        0.0481
     22 C          59.1065   90.0309    6.9188 C.3     1  UNL1        0.1177
     23 O          59.7553   90.0669    9.8475 O.2     1  UNL1       -0.2526
     24 C          60.1979   88.9145    8.9955 C.2     1  UNL1        0.3047
     25 N          59.8735   88.8965    7.5311 N.am    1  UNL1       -0.2847
     26 N          60.9649   87.7802    9.6078 N.am    1  UNL1       -0.2560
     27 C          61.3605   87.6601   11.0497 C.3     1  UNL1        0.1218
     28 C          62.1111   86.3724   11.2188 C.ar    1  UNL1       -0.0016
     29 C          62.7412   85.7279   12.4177 C.ar    1  UNL1        0.0178
     30 C          63.4395   84.4077   12.2793 C.ar    1  UNL1        0.0986
     31 N          63.5077   83.7319   10.9419 N.ar    1  UNL1       -0.2426
     32 C          62.8776   84.3764    9.7429 C.ar    1  UNL1        0.0960
     33 C          62.1793   85.6966    9.8814 C.ar    1  UNL1        0.0146
     34 C          61.4709   86.5667    8.8857 C.3     1  UNL1        0.1233
     35 H          60.1640   88.1401    6.9719 H       1  UNL1        0.1513
@<TRIPOS>BOND
     1    23    24    2
     2    24    25   am
     3    25    22    1
     4    22     1    1
     5     1     2   ar
     6     2     3   ar
     7     3     4   ar
     8     4     7    1
     9     7     8    2
    10     7     9    2
    11     7    10    1
    12    10    11    1
    13    11    12    1
    14    12    13    1
    15    13    16    1
    16    16    17    1
    17    17    18    1
    18    18    19    1
    19    19    20    1
    20    20    21    1
    21    13    14    1
    22    14    15    1
    23     4     5   ar
    24     5     6   ar
    25    24    26   am
    26    26    27    1
    27    27    28    1
    28    28    29   ar
    29    29    30   ar
    30    30    31   ar
    31    31    32   ar
    32    32    33   ar
    33    33    34    1
    34     6     1   ar
    35    34    26    1
    36    15    10    1
    37    33    28   ar
    38    21    16    1
    39    25    35    1
@<TRIPOS>MOLECULE
*****
 35 39 0 0 0
SMALL
GASTEIGER

@<TRIPOS>ATOM
      1 C          59.6984   90.5293    5.9556 C.ar    1  UNL1       -0.0024
      2 C          58.7161   91.4196    5.2539 C.ar    1  UNL1       -0.0013
      3 C          59.1114   92.1224    3.9890 C.ar    1  UNL1        0.0181
      4 C          60.4890   91.9349    3.4259 C.ar    1  UNL1        0.1056
      5 C          61.4713   91.0445    4.1277 C.ar    1  UNL1        0.0181
      6 C          61.0760   90.3418    5.3925 C.ar    1  UNL1       -0.0013
      7 S          60.8843   92.6377    2.1611 S.O2    1  UNL1        0.0071
      8 O          62.3309   92.4197    2.4921 O.2     1  UNL1       -0.1687
      9 O          59.4376   92.8556    1.8301 O.2     1  UNL1       -0.1687
     10 C          61.2796   93.3404    0.8963 C.3     1  UNL1        0.1366
     11 C          62.7027   93.7668    0.6884 C.3     1  UNL1        0.0413
     12 C          63.0979   94.4695   -0.5764 C.3     1  UNL1        0.0738
     13 N          62.0702   94.7460   -1.6334 N.3     1  UNL1       -0.2737
     14 C          60.6472   94.3197   -1.4257 C.3     1  UNL1        0.0738
     15 C          60.2518   93.6169   -0.1608 C.3     1  UNL1        0.0413
     16 C          62.4655   95.4487   -2.8983 C.3     1  UNL1        0.0625
     17 C          61.4240   95.7950   -3.9208 C.3     1  UNL1        0.0481
     18 C          61.8193   96.4978   -5.1856 C.3     1  UNL1        0.1435
     19 O          63.2560   96.8543   -5.4280 O.3     1  UNL1       -0.3537
     20 C          64.2975   96.5081   -4.4055 C.3     1  UNL1        0.1435
     21 C          63.9022   95.8053   -3.1406 C.3     1  UNL1        0.0481
     22 C          59.3032   89.8265    7.2205 C.3     1  UNL1        0.1177
     23 O          60.4661   87.4182    8.5796 O.2     1  UNL1       -0.2526
     24 C          60.7125   88.7875    9.1400 C.2     1  UNL1        0.3047
     25 N          60.1310   89.9917    8.4604 N.am    1  UNL1       -0.2847
     26 N          61.5404   88.9527   10.3799 N.am    1  UNL1       -0.2560
     27 C          62.1835   87.8478   11.1643 C.3     1  UNL1        0.1218
     28 C          62.9111   88.4640   12.3223 C.ar    1  UNL1       -0.0016
     29 C          63.7247   87.8642   13.4305 C.ar    1  UNL1        0.0178
     30 C          64.3449   88.7502   14.4698 C.ar    1  UNL1        0.0986
     31 N          64.1515   90.2361   14.4010 N.ar    1  UNL1       -0.2426
     32 C          63.3378   90.8359   13.2928 C.ar    1  UNL1        0.0960
     33 C          62.7176   89.9499   12.2535 C.ar    1  UNL1        0.0146
     34 C          61.8705   90.2519   11.0530 C.3     1  UNL1        0.1233
     35 H          60.2927   90.8905    8.8282 H       1  UNL1        0.1513
@<TRIPOS>BOND
     1    23    24    2
     2    24    25   am
     3    25    22    1
     4    22     1    1
     5     1     2   ar
     6     2     3   ar
     7     3     4   ar
     8     4     7    1
     9     7     8    2
    10     7     9    2
    11     7    10    1
    12    10    11    1
    13    11    12    1
    14    12    13    1
    15    13    16    1
    16    16    17    1
    17    17    18    1
    18    18    19    1
    19    19    20    1
    20    20    21    1
    21    13    14    1
    22    14    15    1
    23     4     5   ar
    24     5     6   ar
    25    24    26   am
    26    26    27    1
    27    27    28    1
    28    28    29   ar
    29    29    30   ar
    30    30    31   ar
    31    31    32   ar
    32    32    33   ar
    33    33    34    1
    34     6     1   ar
    35    34    26    1
    36    15    10    1
    37    33    28   ar
    38    21    16    1
    39    25    35    1
@<TRIPOS>MOLECULE
*****
 35 39 0 0 0
SMALL
GASTEIGER

@<TRIPOS>ATOM
      1 C          58.7450   91.0361    5.1469 C.ar    1  UNL1       -0.0024
      2 C          57.8261   90.1434    5.9271 C.ar    1  UNL1       -0.0013
      3 C          58.3885   89.1842    6.9339 C.ar    1  UNL1        0.0181
      4 C          59.8697   89.1177    7.1605 C.ar    1  UNL1        0.1056
      5 C          60.7887   90.0104    6.3802 C.ar    1  UNL1        0.0181
      6 C          60.2263   90.9696    5.3734 C.ar    1  UNL1       -0.0013
      7 S          60.4321   88.1585    8.1673 S.O2    1  UNL1        0.0071
      8 O          59.8986   87.0068    7.3681 O.2     1  UNL1       -0.1687
      9 O          60.9657   89.3103    8.9665 O.2     1  UNL1       -0.1687
     10 C          60.9945   87.1994    9.1741 C.3     1  UNL1        0.1366
     11 C          60.6541   87.3519   10.6270 C.3     1  UNL1        0.0413
     12 C          61.2165   86.3927   11.6338 C.3     1  UNL1        0.0738
     13 N          62.1193   85.2810   11.1877 N.3     1  UNL1       -0.2737
     14 C          62.4598   85.1285    9.7349 C.3     1  UNL1        0.0738
     15 C          61.8974   86.0877    8.7280 C.3     1  UNL1        0.0413
     16 C          62.6817   84.3218   12.1945 C.3     1  UNL1        0.0625
     17 C          63.1853   84.8287   13.5135 C.3     1  UNL1        0.0481
     18 C          63.7477   83.8695   14.5203 C.3     1  UNL1        0.1435
     19 O          63.8066   82.4035   14.2082 O.3     1  UNL1       -0.3537
     20 C          63.3031   81.8967   12.8893 C.3     1  UNL1        0.1435
     21 C          62.7406   82.8559   11.8824 C.3     1  UNL1        0.0481
     22 C          58.1826   91.9953    4.1400 C.3     1  UNL1        0.1177
     23 O          59.9196   94.4323    3.9318 O.2     1  UNL1       -0.2526
     24 C          59.8006   93.4944    2.7673 C.2     1  UNL1        0.3047
     25 N          58.9321   92.2759    2.8714 N.am    1  UNL1       -0.2847
     26 N          60.5502   93.7751    1.4986 N.am    1  UNL1       -0.2560
     27 C          61.4520   94.9473    1.2483 C.3     1  UNL1        0.1218
     28 C          61.9887   94.8294   -0.1475 C.ar    1  UNL1       -0.0016
     29 C          62.9229   95.6950   -0.9400 C.ar    1  UNL1        0.0178
     30 C          63.2869   95.3155   -2.3448 C.ar    1  UNL1        0.0986
     31 N          62.7167   94.0705   -2.9570 N.ar    1  UNL1       -0.2426
     32 C          61.7826   93.2050   -2.1645 C.ar    1  UNL1        0.0960
     33 C          61.4185   93.5844   -0.7598 C.ar    1  UNL1        0.0146
     34 C          60.5295   92.9328    0.2576 C.3     1  UNL1        0.1233
     35 H          58.8540   91.6604    2.1070 H       1  UNL1        0.1513
@<TRIPOS>BOND
     1    23    24    2
     2    24    25   am
     3    25    22    1
     4    22     1    1
     5     1     2   ar
     6     2     3   ar
     7     3     4   ar
     8     4     7    1
     9     7     8    2
    10     7     9    2
    11     7    10    1
    12    10    11    1
    13    11    12    1
    14    12    13    1
    15    13    16    1
    16    16    17    1
    17    17    18    1
    18    18    19    1
    19    19    20    1
    20    20    21    1
    21    13    14    1
    22    14    15    1
    23     4     5   ar
    24     5     6   ar
    25    24    26   am
    26    26    27    1
    27    27    28    1
    28    28    29   ar
    29    29    30   ar
    30    30    31   ar
    31    31    32   ar
    32    32    33   ar
    33    33    34    1
    34     6     1   ar
    35    34    26    1
    36    15    10    1
    37    33    28   ar
    38    21    16    1
    39    25    35    1
@<TRIPOS>MOLECULE
*****
 35 39 0 0 0
SMALL
GASTEIGER

@<TRIPOS>ATOM
      1 C          59.0731   89.9280    6.5060 C.ar    1  UNL1       -0.0024
      2 C          60.4631   89.6475    6.0171 C.ar    1  UNL1       -0.0013
      3 C          61.0189   90.4162    4.8551 C.ar    1  UNL1        0.0181
      4 C          60.1846   91.4654    4.1820 C.ar    1  UNL1        0.1056
      5 C          58.7945   91.7459    4.6709 C.ar    1  UNL1        0.0181
      6 C          58.2387   90.9772    5.8328 C.ar    1  UNL1       -0.0013
      7 S          60.7403   92.2341    3.0200 S.O2    1  UNL1        0.0071
      8 O          62.0558   91.5326    3.1851 O.2     1  UNL1       -0.1687
      9 O          59.4248   92.9357    2.8550 O.2     1  UNL1       -0.1687
     10 C          61.2961   93.0028    1.8581 C.3     1  UNL1        0.1366
     11 C          62.7775   93.0444    1.6258 C.3     1  UNL1        0.0413
     12 C          63.3332   93.8131    0.4639 C.3     1  UNL1        0.0738
     13 N          62.4076   94.5403   -0.4659 N.3     1  UNL1       -0.2737
     14 C          60.9263   94.4987   -0.2338 C.3     1  UNL1        0.0738
     15 C          60.3705   93.7300    0.9283 C.3     1  UNL1        0.0413
     16 C          62.9633   95.3090   -1.6279 C.3     1  UNL1        0.0625
     17 C          64.4449   95.3531   -1.8583 C.3     1  UNL1        0.0481
     18 C          65.0007   96.1218   -3.0203 C.3     1  UNL1        0.1435
     19 O          64.0749   96.8464   -3.9519 O.3     1  UNL1       -0.3537
     20 C          62.5934   96.8023   -3.7215 C.3     1  UNL1        0.1435
     21 C          62.0376   96.0335   -2.5595 C.3     1  UNL1        0.0481
     22 C          58.5172   89.1593    7.6680 C.3     1  UNL1        0.1177
     23 O          60.2314   89.8731   10.0242 O.2     1  UNL1       -0.2526
     24 C          60.2062   88.4624    9.5151 C.2     1  UNL1        0.3047
     25 N          59.3491   88.1055    8.3369 N.am    1  UNL1       -0.2847
     26 N          61.0381   87.4086   10.1840 N.am    1  UNL1       -0.2560
     27 C          61.9392   87.6148   11.3653 C.3     1  UNL1        0.1218
     28 C          62.5730   86.2972   11.7005 C.ar    1  UNL1       -0.0016
     29 C          63.5481   85.8949   12.7669 C.ar    1  UNL1        0.0178
     30 C          64.0139   84.4720   12.8590 C.ar    1  UNL1        0.0986
     31 N          63.5045   83.4515   11.8848 N.ar    1  UNL1       -0.2426
     32 C          62.5294   83.8538   10.8185 C.ar    1  UNL1        0.0960
     33 C          62.0636   85.2767   10.7263 C.ar    1  UNL1        0.0146
     34 C          61.1150   85.9636    9.7890 C.3     1  UNL1        0.1233
     35 H          59.3326   87.1796    8.0027 H       1  UNL1        0.1513
@<TRIPOS>BOND
     1    23    24    2
     2    24    25   am
     3    25    22    1
     4    22     1    1
     5     1     2   ar
     6     2     3   ar
     7     3     4   ar
     8     4     7    1
     9     7     8    2
    10     7     9    2
    11     7    10    1
    12    10    11    1
    13    11    12    1
    14    12    13    1
    15    13    16    1
    16    16    17    1
    17    17    18    1
    18    18    19    1
    19    19    20    1
    20    20    21    1
    21    13    14    1
    22    14    15    1
    23     4     5   ar
    24     5     6   ar
    25    24    26   am
    26    26    27    1
    27    27    28    1
    28    28    29   ar
    29    29    30   ar
    30    30    31   ar
    31    31    32   ar
    32    32    33   ar
    33    33    34    1
    34     6     1   ar
    35    34    26    1
    36    15    10    1
    37    33    28   ar
    38    21    16    1
    39    25    35    1
@<TRIPOS>MOLECULE
*****
 35 39 0 0 0
SMALL
GASTEIGER

@<TRIPOS>ATOM
      1 C          59.1889   89.6254    6.8185 C.ar    1  UNL1       -0.0024
      2 C          58.2631   90.3468    5.8844 C.ar    1  UNL1       -0.0013
      3 C          58.8213   91.1499    4.7470 C.ar    1  UNL1        0.0181
      4 C          60.3052   91.2314    4.5437 C.ar    1  UNL1        0.1056
      5 C          61.2310   90.5100    5.4778 C.ar    1  UNL1        0.0181
      6 C          60.6728   89.7070    6.6152 C.ar    1  UNL1       -0.0013
      7 S          60.8633   92.0344    3.4063 S.O2    1  UNL1        0.0071
      8 O          59.5230   92.6758    3.2014 O.2     1  UNL1       -0.1687
      9 O          62.2037   91.3930    3.6112 O.2     1  UNL1       -0.1687
     10 C          61.4215   92.8374    2.2689 C.3     1  UNL1        0.1366
     11 C          62.8654   92.6952    1.8880 C.3     1  UNL1        0.0413
     12 C          63.4235   93.4982    0.7506 C.3     1  UNL1        0.0738
     13 N          62.5379   94.4433   -0.0059 N.3     1  UNL1       -0.2737
     14 C          61.0941   94.5855    0.3750 C.3     1  UNL1        0.0738
     15 C          60.5358   93.7825    1.5124 C.3     1  UNL1        0.0413
     16 C          63.0960   95.2463   -1.1432 C.3     1  UNL1        0.0625
     17 C          62.1725   95.8494   -2.1598 C.3     1  UNL1        0.0481
     18 C          62.7306   96.6524   -3.2972 C.3     1  UNL1        0.1435
     19 O          64.2123   96.8523   -3.4180 O.3     1  UNL1       -0.3537
     20 C          65.1359   96.2493   -2.4015 C.3     1  UNL1        0.1435
     21 C          64.5777   95.4462   -1.2641 C.3     1  UNL1        0.0481
     22 C          58.6308   88.8224    7.9559 C.3     1  UNL1        0.1177
     23 O          59.9518   86.2207    7.2593 O.2     1  UNL1       -0.2526
     24 C          60.2177   86.8648    8.5876 C.2     1  UNL1        0.3047
     25 N          59.5572   88.1656    8.9359 N.am    1  UNL1       -0.2847
     26 N          61.1442   86.2080    9.5676 N.am    1  UNL1       -0.2560
     27 C          61.8731   84.9135    9.3605 C.3     1  UNL1        0.1218
     28 C          62.6838   84.6358   10.5916 C.ar    1  UNL1       -0.0016
     29 C          63.6000   83.5056   10.9563 C.ar    1  UNL1        0.0178
     30 C          64.2884   83.4983   12.2890 C.ar    1  UNL1        0.0986
     31 N          64.0605   84.6213   13.2570 N.ar    1  UNL1       -0.2426
     32 C          63.1443   85.7515   12.8923 C.ar    1  UNL1        0.0960
     33 C          62.4559   85.7588   11.5597 C.ar    1  UNL1        0.0146
     34 C          61.5044   86.7304   10.9267 C.3     1  UNL1        0.1233
     35 H          59.7317   88.5884    9.8077 H       1  UNL1        0.1513
@<TRIPOS>BOND
     1    23    24    2
     2    24    25   am
     3    25    22    1
     4    22     1    1
     5     1     2   ar
     6     2     3   ar
     7     3     4   ar
     8     4     7    1
     9     7     8    2
    10     7     9    2
    11     7    10    1
    12    10    11    1
    13    11    12    1
    14    12    13    1
    15    13    16    1
    16    16    17    1
    17    17    18    1
    18    18    19    1
    19    19    20    1
    20    20    21    1
    21    13    14    1
    22    14    15    1
    23     4     5   ar
    24     5     6   ar
    25    24    26   am
    26    26    27    1
    27    27    28    1
    28    28    29   ar
    29    29    30   ar
    30    30    31   ar
    31    31    32   ar
    32    32    33   ar
    33    33    34    1
    34     6     1   ar
    35    34    26    1
    36    15    10    1
    37    33    28   ar
    38    21    16    1
    39    25    35    1
