@<TRIPOS>MOLECULE
*****
 34 38 0 0 0
SMALL
GASTEIGER

@<TRIPOS>ATOM
      1 C          63.9021   88.1975   13.8469 C.ar    1  UNL1        0.1059
      2 C          64.4279   87.3007   14.9283 C.ar    1  UNL1        0.0183
      3 C          64.2439   85.8156   14.8265 C.ar    1  UNL1        0.0015
      4 C          63.5340   85.2272   13.6433 C.ar    1  UNL1        0.0045
      5 C          63.0082   86.1239   12.5619 C.ar    1  UNL1        0.0549
      6 C          63.1923   87.6091   12.6637 C.ar    1  UNL1        0.0229
      7 C          62.2985   85.5354   11.3787 C.2     1  UNL1        0.2496
      8 O          62.2541   84.0475   11.1946 O.2     1  UNL1       -0.2699
      9 N          61.6331   86.4350   10.3797 N.am    1  UNL1       -0.2661
     10 C          60.8897   85.9939    9.1538 C.3     1  UNL1        0.1236
     11 C          60.3914   87.2199    8.4476 C.ar    1  UNL1        0.0338
     12 C          59.6240   87.7050    7.2536 C.ar    1  UNL1        0.0991
     13 N          59.5852   89.2036    7.3051 N.ar    1  UNL1       -0.2271
     14 N          60.3286   89.6447    8.5310 N.ar    1  UNL1       -0.1680
     15 C          60.8269   88.4187    9.2371 C.ar    1  UNL1        0.0981
     16 C          61.5942   87.9336   10.4312 C.3     1  UNL1        0.1414
     17 C          58.9198   90.1031    6.3061 C.ar    1  UNL1        0.1042
     18 C          57.4256   90.1022    6.1743 C.ar    1  UNL1        0.1181
     19 N          56.7602   91.0018    5.1753 N.ar    1  UNL1       -0.2384
     20 C          57.5890   91.9022    4.3080 C.ar    1  UNL1        0.1285
     21 C          59.0832   91.9031    4.4397 C.ar    1  UNL1        0.1607
     22 F          59.9119   92.8037    3.5724 F       1  UNL1       -0.2025
     23 C          59.7486   91.0036    5.4388 C.ar    1  UNL1        0.0520
     24 C          63.3500   83.7420   13.5415 C.ar    1  UNL1        0.0024
     25 C          64.3923   82.9017   12.8650 C.ar    1  UNL1        0.0001
     26 C          64.2083   81.4165   12.7632 C.ar    1  UNL1        0.0023
     27 C          62.9820   80.7716   13.3379 C.ar    1  UNL1        0.0296
     28 C          61.9397   81.6118   14.0143 C.ar    1  UNL1        0.1401
     29 F          60.7135   80.9669   14.5890 F       1  UNL1       -0.2042
     30 C          62.1237   83.0970   14.1161 C.ar    1  UNL1        0.0296
     31 C          64.2701   91.1679   14.0505 C.3     1  UNL1        0.1816
     32 S          64.0861   89.6827   13.9487 S.O2    1  UNL1        0.0105
     33 O          63.8736   89.8104   12.4693 O.2     1  UNL1       -0.1686
     34 O          64.2986   89.5550   15.4281 O.2     1  UNL1       -0.1686
@<TRIPOS>BOND
     1    31    32    1
     2    32    33    2
     3    32    34    2
     4    32     1    1
     5     1     2   ar
     6     2     3   ar
     7     3     4   ar
     8     4    24    1
     9    24    25   ar
    10    25    26   ar
    11    26    27   ar
    12    27    28   ar
    13    28    29    1
    14    28    30   ar
    15     4     5   ar
    16     5     7    1
    17     7     8    2
    18     7     9   am
    19     9    10    1
    20    10    11    1
    21    11    12   ar
    22    12    13   ar
    23    13    17    1
    24    17    18   ar
    25    18    19   ar
    26    19    20   ar
    27    20    21   ar
    28    21    22    1
    29    21    23   ar
    30    13    14   ar
    31    14    15   ar
    32    15    16    1
    33     5     6   ar
    34     6     1   ar
    35    30    24   ar
    36    16     9    1
    37    15    11   ar
    38    23    17   ar
@<TRIPOS>MOLECULE
*****
 34 38 0 0 0
SMALL
GASTEIGER

@<TRIPOS>ATOM
      1 C          60.3205   92.1297    3.8467 C.ar    1  UNL1        0.1059
      2 C          61.6316   91.4855    3.5060 C.ar    1  UNL1        0.0183
      3 C          62.5756   92.1623    2.5569 C.ar    1  UNL1        0.0015
      4 C          62.2085   93.4834    1.9486 C.ar    1  UNL1        0.0045
      5 C          60.8974   94.1276    2.2893 C.ar    1  UNL1        0.0549
      6 C          59.9534   93.4507    3.2384 C.ar    1  UNL1        0.0229
      7 C          60.5304   95.4487    1.6810 C.2     1  UNL1        0.2496
      8 O          61.1459   96.7124    2.2046 O.2     1  UNL1       -0.2699
      9 N          59.5478   95.5060    0.5491 N.am    1  UNL1       -0.2661
     10 C          59.0863   96.7470   -0.1558 C.3     1  UNL1        0.1236
     11 C          58.1074   96.3403   -1.2173 C.ar    1  UNL1        0.0338
     12 C          57.2172   96.8560   -2.3089 C.ar    1  UNL1        0.0991
     13 N          56.5236   95.6823   -2.9345 N.ar    1  UNL1       -0.2271
     14 N          56.9851   94.4413   -2.2296 N.ar    1  UNL1       -0.1680
     15 C          57.9640   94.8480   -1.1682 C.ar    1  UNL1        0.0981
     16 C          58.8542   94.3324   -0.0766 C.3     1  UNL1        0.1414
     17 C          55.5410   95.7397   -4.0664 C.ar    1  UNL1        0.1042
     18 C          55.9918   95.4456   -5.4666 C.ar    1  UNL1        0.1181
     19 N          55.0092   95.5030   -6.5985 N.ar    1  UNL1       -0.2384
     20 C          53.5759   95.8543   -6.3302 C.ar    1  UNL1        0.1285
     21 C          53.1251   96.1484   -4.9301 C.ar    1  UNL1        0.1607
     22 F          51.6916   96.4997   -4.6620 F       1  UNL1       -0.2025
     23 C          54.1077   96.0910   -3.7982 C.ar    1  UNL1        0.0520
     24 C          63.1525   94.1603    0.9996 C.ar    1  UNL1        0.0024
     25 C          64.1629   95.1401    1.5181 C.ar    1  UNL1        0.0001
     26 C          65.1070   95.8170    0.5691 C.ar    1  UNL1        0.0023
     27 C          65.0406   95.5140   -0.8985 C.ar    1  UNL1        0.0296
     28 C          64.0301   94.5341   -1.4170 C.ar    1  UNL1        0.1401
     29 F          63.9637   94.2311   -2.8846 F       1  UNL1       -0.2042
     30 C          63.0861   93.8573   -0.4680 C.ar    1  UNL1        0.0296
     31 C          58.4324   90.7760    5.7448 C.3     1  UNL1        0.1816
     32 S          59.3765   91.4528    4.7957 S.O2    1  UNL1        0.0105
     33 O          58.2723   92.3636    4.3470 O.2     1  UNL1       -0.1686
     34 O          60.4806   90.5420    5.2445 O.2     1  UNL1       -0.1686
@<TRIPOS>BOND
     1    31    32    1
     2    32    33    2
     3    32    34    2
     4    32     1    1
     5     1     2   ar
     6     2     3   ar
     7     3     4   ar
     8     4    24    1
     9    24    25   ar
    10    25    26   ar
    11    26    27   ar
    12    27    28   ar
    13    28    29    1
    14    28    30   ar
    15     4     5   ar
    16     5     7    1
    17     7     8    2
    18     7     9   am
    19     9    10    1
    20    10    11    1
    21    11    12   ar
    22    12    13   ar
    23    13    17    1
    24    17    18   ar
    25    18    19   ar
    26    19    20   ar
    27    20    21   ar
    28    21    22    1
    29    21    23   ar
    30    13    14   ar
    31    14    15   ar
    32    15    16    1
    33     5     6   ar
    34     6     1   ar
    35    30    24   ar
    36    16     9    1
    37    15    11   ar
    38    23    17   ar
@<TRIPOS>MOLECULE
*****
 34 38 0 0 0
SMALL
GASTEIGER

@<TRIPOS>ATOM
      1 C          67.0403   92.4166   14.5758 C.ar    1  UNL1        0.1059
      2 C          66.7788   92.5564   13.1054 C.ar    1  UNL1        0.0183
      3 C          65.5776   91.9004   12.4916 C.ar    1  UNL1        0.0015
      4 C          64.6379   91.1046   13.3482 C.ar    1  UNL1        0.0045
      5 C          64.8994   90.9648   14.8186 C.ar    1  UNL1        0.0549
      6 C          66.1006   91.6209   15.4324 C.ar    1  UNL1        0.0229
      7 C          63.9597   90.1690   15.6751 C.2     1  UNL1        0.2496
      8 O          63.2159   90.8371   16.7933 O.2     1  UNL1       -0.2699
      9 N          63.7639   88.7050   15.4135 N.am    1  UNL1       -0.2661
     10 C          62.8624   87.7849   16.1820 C.3     1  UNL1        0.1236
     11 C          62.9766   86.4153   15.5808 C.ar    1  UNL1        0.0338
     12 C          62.4900   85.0002   15.6843 C.ar    1  UNL1        0.0991
     13 N          63.1613   84.1994   14.6081 N.ar    1  UNL1       -0.2271
     14 N          64.0628   85.1196   13.8396 N.ar    1  UNL1       -0.1680
     15 C          63.9486   86.4892   14.4408 C.ar    1  UNL1        0.0981
     16 C          64.4352   87.9042   14.3373 C.3     1  UNL1        0.1414
     17 C          62.9654   82.7355   14.3465 C.ar    1  UNL1        0.1042
     18 C          64.1490   81.8602   14.0579 C.ar    1  UNL1        0.1181
     19 N          63.9531   80.3963   13.7963 N.ar    1  UNL1       -0.2384
     20 C          62.5738   79.8075   13.8232 C.ar    1  UNL1        0.1285
     21 C          61.3903   80.6828   14.1118 C.ar    1  UNL1        0.1607
     22 F          60.0109   80.0939   14.1387 F       1  UNL1       -0.2025
     23 C          61.5861   82.1467   14.3734 C.ar    1  UNL1        0.0520
     24 C          63.4367   90.4486   12.7343 C.ar    1  UNL1        0.0024
     25 C          62.1026   90.5410   13.4136 C.ar    1  UNL1        0.0001
     26 C          60.9014   89.8850   12.7997 C.ar    1  UNL1        0.0023
     27 C          61.0344   89.1365   11.5066 C.ar    1  UNL1        0.0296
     28 C          62.3686   89.0441   10.8274 C.ar    1  UNL1        0.1401
     29 F          62.5016   88.2956    9.5343 F       1  UNL1       -0.2042
     30 C          63.5698   89.7001   11.4413 C.ar    1  UNL1        0.0296
     31 C          69.4426   93.7287   15.8036 C.3     1  UNL1        0.1816
     32 S          68.2414   93.0727   15.1897 S.O2    1  UNL1        0.0105
     33 O          67.3828   93.6092   16.2964 O.2     1  UNL1       -0.1686
     34 O          69.1001   92.5361   14.0830 O.2     1  UNL1       -0.1686
@<TRIPOS>BOND
     1    31    32    1
     2    32    33    2
     3    32    34    2
     4    32     1    1
     5     1     2   ar
     6     2     3   ar
     7     3     4   ar
     8     4    24    1
     9    24    25   ar
    10    25    26   ar
    11    26    27   ar
    12    27    28   ar
    13    28    29    1
    14    28    30   ar
    15     4     5   ar
    16     5     7    1
    17     7     8    2
    18     7     9   am
    19     9    10    1
    20    10    11    1
    21    11    12   ar
    22    12    13   ar
    23    13    17    1
    24    17    18   ar
    25    18    19   ar
    26    19    20   ar
    27    20    21   ar
    28    21    22    1
    29    21    23   ar
    30    13    14   ar
    31    14    15   ar
    32    15    16    1
    33     5     6   ar
    34     6     1   ar
    35    30    24   ar
    36    16     9    1
    37    15    11   ar
    38    23    17   ar
@<TRIPOS>MOLECULE
*****
 34 38 0 0 0
SMALL
GASTEIGER

@<TRIPOS>ATOM
      1 C          66.2962   91.7194   13.9231 C.ar    1  UNL1        0.1059
      2 C          65.8193   92.0425   12.5382 C.ar    1  UNL1        0.0183
      3 C          64.5832   91.3861   11.9985 C.ar    1  UNL1        0.0015
      4 C          63.8242   90.4065   12.8438 C.ar    1  UNL1        0.0045
      5 C          64.3012   90.0835   14.2288 C.ar    1  UNL1        0.0549
      6 C          65.5373   90.7399   14.7684 C.ar    1  UNL1        0.0229
      7 C          63.5421   89.1040   15.0740 C.2     1  UNL1        0.2496
      8 O          62.9091   89.5535   16.3575 O.2     1  UNL1       -0.2699
      9 N          63.4160   87.6750   14.6357 N.am    1  UNL1       -0.2661
     10 C          62.6917   86.5875   15.3724 C.3     1  UNL1        0.1236
     11 C          62.8201   85.3229   14.5757 C.ar    1  UNL1        0.0338
     12 C          62.4518   83.8694   14.5386 C.ar    1  UNL1        0.0991
     13 N          63.0279   83.2770   13.2867 N.ar    1  UNL1       -0.2271
     14 N          63.7522   84.3646   12.5500 N.ar    1  UNL1       -0.1680
     15 C          63.6238   85.6291   13.3467 C.ar    1  UNL1        0.0981
     16 C          63.9921   87.0827   13.3838 C.3     1  UNL1        0.1414
     17 C          62.9018   81.8481   12.8484 C.ar    1  UNL1        0.1042
     18 C          62.6439   80.7727   13.8619 C.ar    1  UNL1        0.1181
     19 N          62.5178   79.3437   13.4236 N.ar    1  UNL1       -0.2384
     20 C          62.6496   78.9901   11.9719 C.ar    1  UNL1        0.1285
     21 C          62.9075   80.0655   10.9584 C.ar    1  UNL1        0.1607
     22 F          63.0393   79.7117    9.5066 F       1  UNL1       -0.2025
     23 C          63.0336   81.4944   11.3967 C.ar    1  UNL1        0.0520
     24 C          62.5881   89.7501   12.3041 C.ar    1  UNL1        0.0024
     25 C          62.7051   88.5551   11.4051 C.ar    1  UNL1        0.0001
     26 C          61.4691   87.8987   10.8653 C.ar    1  UNL1        0.0023
     27 C          60.1160   88.4373   11.2246 C.ar    1  UNL1        0.0296
     28 C          59.9990   89.6323   12.1236 C.ar    1  UNL1        0.1401
     29 F          58.6459   90.1709   12.4829 F       1  UNL1       -0.2042
     30 C          61.2350   90.2887   12.6634 C.ar    1  UNL1        0.0296
     31 C          68.7684   93.0322   15.0026 C.3     1  UNL1        0.1816
     32 S          67.5323   92.3758   14.4629 S.O2    1  UNL1        0.0105
     33 O          68.1329   92.3751   13.0884 O.2     1  UNL1       -0.1686
     34 O          66.9317   92.3765   15.8374 O.2     1  UNL1       -0.1686
@<TRIPOS>BOND
     1    31    32    1
     2    32    33    2
     3    32    34    2
     4    32     1    1
     5     1     2   ar
     6     2     3   ar
     7     3     4   ar
     8     4    24    1
     9    24    25   ar
    10    25    26   ar
    11    26    27   ar
    12    27    28   ar
    13    28    29    1
    14    28    30   ar
    15     4     5   ar
    16     5     7    1
    17     7     8    2
    18     7     9   am
    19     9    10    1
    20    10    11    1
    21    11    12   ar
    22    12    13   ar
    23    13    17    1
    24    17    18   ar
    25    18    19   ar
    26    19    20   ar
    27    20    21   ar
    28    21    22    1
    29    21    23   ar
    30    13    14   ar
    31    14    15   ar
    32    15    16    1
    33     5     6   ar
    34     6     1   ar
    35    30    24   ar
    36    16     9    1
    37    15    11   ar
    38    23    17   ar
@<TRIPOS>MOLECULE
*****
 34 38 0 0 0
SMALL
GASTEIGER

@<TRIPOS>ATOM
      1 C          59.6406   88.9731    7.2749 C.ar    1  UNL1        0.1059
      2 C          60.3243   87.7511    6.7370 C.ar    1  UNL1        0.0183
      3 C          61.0131   86.8034    7.6737 C.ar    1  UNL1        0.0015
      4 C          61.0183   87.0779    9.1484 C.ar    1  UNL1        0.0045
      5 C          60.3346   88.2999    9.6864 C.ar    1  UNL1        0.0549
      6 C          59.6458   89.2475    8.7496 C.ar    1  UNL1        0.0229
      7 C          60.3399   88.5742   11.1611 C.2     1  UNL1        0.2496
      8 O          59.1612   88.1807   12.0013 O.2     1  UNL1       -0.2699
      9 N          61.5237   89.2420   11.7955 N.am    1  UNL1       -0.2661
     10 C          61.6715   89.5789   13.2497 C.3     1  UNL1        0.1236
     11 C          63.0068   90.2353   13.4400 C.ar    1  UNL1        0.0338
     12 C          63.9234   90.8492   14.4564 C.ar    1  UNL1        0.0991
     13 N          65.1673   91.2973   13.7479 N.ar    1  UNL1       -0.2271
     14 N          65.0195   90.9604   12.2937 N.ar    1  UNL1       -0.1680
     15 C          63.6842   90.3040   12.1034 C.ar    1  UNL1        0.0981
     16 C          62.7676   89.6902   11.0871 C.3     1  UNL1        0.1414
     17 C          66.3512   91.9651   14.3824 C.ar    1  UNL1        0.1042
     18 C          66.1734   92.7815   15.6282 C.ar    1  UNL1        0.1181
     19 N          67.3572   93.4493   16.2626 N.ar    1  UNL1       -0.2384
     20 C          68.7189   93.3007   15.6512 C.ar    1  UNL1        0.1285
     21 C          68.8967   92.4844   14.4054 C.ar    1  UNL1        0.1607
     22 F          70.2585   92.3359   13.7941 F       1  UNL1       -0.2025
     23 C          67.7128   91.8166   13.7710 C.ar    1  UNL1        0.0520
     24 C          61.7071   86.1302   10.0851 C.ar    1  UNL1        0.0024
     25 C          61.3976   86.1684   11.5524 C.ar    1  UNL1        0.0001
     26 C          62.0865   85.2208   12.4891 C.ar    1  UNL1        0.0023
     27 C          63.0848   84.2349   11.9586 C.ar    1  UNL1        0.0296
     28 C          63.3943   84.1968   10.4914 C.ar    1  UNL1        0.1401
     29 F          64.3927   83.2109    9.9609 F       1  UNL1       -0.2042
     30 C          62.7055   85.1444    9.5547 C.ar    1  UNL1        0.0296
     31 C          58.2629   90.8684    5.4015 C.3     1  UNL1        0.1816
     32 S          58.9518   89.9207    6.3382 S.O2    1  UNL1        0.0105
     33 O          57.6212   89.3747    6.7642 O.2     1  UNL1       -0.1686
     34 O          60.2823   90.4668    5.9121 O.2     1  UNL1       -0.1686
@<TRIPOS>BOND
     1    31    32    1
     2    32    33    2
     3    32    34    2
     4    32     1    1
     5     1     2   ar
     6     2     3   ar
     7     3     4   ar
     8     4    24    1
     9    24    25   ar
    10    25    26   ar
    11    26    27   ar
    12    27    28   ar
    13    28    29    1
    14    28    30   ar
    15     4     5   ar
    16     5     7    1
    17     7     8    2
    18     7     9   am
    19     9    10    1
    20    10    11    1
    21    11    12   ar
    22    12    13   ar
    23    13    17    1
    24    17    18   ar
    25    18    19   ar
    26    19    20   ar
    27    20    21   ar
    28    21    22    1
    29    21    23   ar
    30    13    14   ar
    31    14    15   ar
    32    15    16    1
    33     5     6   ar
    34     6     1   ar
    35    30    24   ar
    36    16     9    1
    37    15    11   ar
    38    23    17   ar
