@<TRIPOS>MOLECULE
*****
 26 28 0 0 0
SMALL
GASTEIGER

@<TRIPOS>ATOM
      1 C          64.6691   90.0812   14.2956 C.ar    1  UNL1        0.0000
      2 C          65.8732   90.8575   14.7398 C.ar    1  UNL1       -0.0002
      3 C          66.3576   92.0209   13.9262 C.ar    1  UNL1       -0.0016
      4 C          65.6378   92.4080   12.6684 C.ar    1  UNL1        0.0099
      5 C          64.4336   91.6316   12.2242 C.ar    1  UNL1       -0.0016
      6 C          63.9493   90.4682   13.0378 C.ar    1  UNL1       -0.0002
      7 C          64.0525   86.3548   15.5138 C.ar    1  UNL1        0.0503
      8 C          63.2161   86.5910   16.7363 C.ar    1  UNL1        0.0147
      9 C          62.8640   87.9905   17.1453 C.ar    1  UNL1        0.0013
     10 C          63.3483   89.1539   16.3317 C.ar    1  UNL1        0.0001
     11 C          64.1847   88.9178   15.1092 C.ar    1  UNL1        0.0012
     12 C          64.5368   87.5182   14.7002 C.ar    1  UNL1        0.0147
     13 C          63.9389   82.8503   13.6549 C.3     1  UNL1        0.0949
     14 C          63.5868   84.2499   14.0638 C.2     1  UNL1        0.2266
     15 O          62.4169   84.9441   13.4318 O.2     1  UNL1       -0.2748
     16 N          64.4046   84.9552   15.1048 N.am    1  UNL1       -0.2839
     17 H          65.1724   84.4996   15.5196 H       1  UNL1        0.1549
     18 C          66.1221   93.5713   11.8548 C.3     1  UNL1        0.1720
     19 O          65.7291   94.9680   12.2352 O.3     1  UNL1       -0.3742
     20 H          66.1237   95.5965   11.6105 H       1  UNL1        0.2113
     21 C          66.9995   93.3379   10.6607 C.ar    1  UNL1        0.0855
     22 C          66.9629   94.1102    9.3753 C.ar    1  UNL1        0.1158
     23 N          68.0083   93.5409    8.4626 N.ar    1  UNL1       -0.2228
     24 C          68.6910   92.4168    9.1840 C.ar    1  UNL1        0.1749
     25 N          68.0676   92.2914   10.5425 N.ar    1  UNL1       -0.3361
     26 H          68.3158   91.6370   11.2349 H       1  UNL1        0.1673
@<TRIPOS>BOND
     1    13    14    1
     2    14    15    2
     3    14    16   am
     4    16     7    1
     5     7     8   ar
     6     8     9   ar
     7     9    10   ar
     8    10    11   ar
     9    11     1    1
    10     1     2   ar
    11     2     3   ar
    12     3     4   ar
    13     4    18    1
    14    18    19    1
    15    18    21    1
    16    21    22   ar
    17    22    23   ar
    18    23    24   ar
    19    24    25   ar
    20     4     5   ar
    21     5     6   ar
    22    11    12   ar
    23    12     7   ar
    24     6     1   ar
    25    25    21   ar
    26    16    17    1
    27    19    20    1
    28    25    26    1
@<TRIPOS>MOLECULE
*****
 26 28 0 0 0
SMALL
GASTEIGER

@<TRIPOS>ATOM
      1 C          63.4511   88.9021   12.6849 C.ar    1  UNL1        0.0000
      2 C          64.0209   88.4698   14.0034 C.ar    1  UNL1       -0.0002
      3 C          64.5835   89.4900   14.9481 C.ar    1  UNL1       -0.0016
      4 C          64.5763   90.9427   14.5744 C.ar    1  UNL1        0.0099
      5 C          64.0066   91.3751   13.2558 C.ar    1  UNL1       -0.0016
      6 C          63.4440   90.3548   12.3111 C.ar    1  UNL1       -0.0002
      7 C          62.2864   85.4150   11.1903 C.ar    1  UNL1        0.0503
      8 C          61.7633   85.8413    9.8507 C.ar    1  UNL1        0.0147
      9 C          61.8028   87.2879    9.4558 C.ar    1  UNL1        0.0013
     10 C          62.3654   88.3081   10.4005 C.ar    1  UNL1        0.0001
     11 C          62.8885   87.8819   11.7401 C.ar    1  UNL1        0.0012
     12 C          62.8490   86.4353   12.1350 C.ar    1  UNL1        0.0147
     13 C          63.2422   81.5722   11.4536 C.3     1  UNL1        0.0949
     14 C          63.2817   83.0188   11.0587 C.2     1  UNL1        0.2266
     15 O          64.3560   83.5156   10.1371 O.2     1  UNL1       -0.2748
     16 N          62.2470   83.9685   11.5853 N.am    1  UNL1       -0.2839
     17 H          61.5419   83.6424   12.1901 H       1  UNL1        0.1549
     18 C          65.1389   91.9630   15.5191 C.3     1  UNL1        0.1720
     19 O          64.2794   92.5293   16.6101 O.3     1  UNL1       -0.3742
     20 H          64.7928   93.1704   17.1263 H       1  UNL1        0.2113
     21 C          66.5611   92.4169   15.3727 C.ar    1  UNL1        0.0855
     22 C          67.5351   91.9440   14.3346 C.ar    1  UNL1        0.1158
     23 N          68.8349   92.6582   14.5590 N.ar    1  UNL1       -0.2228
     24 C          68.6642   93.5726   15.7359 C.ar    1  UNL1        0.1749
     25 N          67.2589   93.4234   16.2387 N.ar    1  UNL1       -0.3361
     26 H          66.8639   93.9021   17.0029 H       1  UNL1        0.1673
@<TRIPOS>BOND
     1    13    14    1
     2    14    15    2
     3    14    16   am
     4    16     7    1
     5     7     8   ar
     6     8     9   ar
     7     9    10   ar
     8    10    11   ar
     9    11     1    1
    10     1     2   ar
    11     2     3   ar
    12     3     4   ar
    13     4    18    1
    14    18    19    1
    15    18    21    1
    16    21    22   ar
    17    22    23   ar
    18    23    24   ar
    19    24    25   ar
    20     4     5   ar
    21     5     6   ar
    22    11    12   ar
    23    12     7   ar
    24     6     1   ar
    25    25    21   ar
    26    16    17    1
    27    19    20    1
    28    25    26    1
@<TRIPOS>MOLECULE
*****
 26 28 0 0 0
SMALL
GASTEIGER

@<TRIPOS>ATOM
      1 C          63.3359   90.3883   11.2620 C.ar    1  UNL1        0.0000
      2 C          63.7322   91.3996   10.2276 C.ar    1  UNL1       -0.0002
      3 C          64.6457   92.5310   10.5961 C.ar    1  UNL1       -0.0016
      4 C          65.1628   92.6509   11.9990 C.ar    1  UNL1        0.0099
      5 C          64.7664   91.6394   13.0334 C.ar    1  UNL1       -0.0016
      6 C          63.8530   90.5082   12.6649 C.ar    1  UNL1       -0.0002
      7 C          61.6682   86.7878   11.1846 C.ar    1  UNL1        0.0503
      8 C          60.5956   86.9943   10.1566 C.ar    1  UNL1        0.0147
      9 C          60.4364   88.3321    9.4971 C.ar    1  UNL1        0.0013
     10 C          61.3498   89.4634    9.8655 C.ar    1  UNL1        0.0001
     11 C          62.4224   89.2569   10.8935 C.ar    1  UNL1        0.0012
     12 C          62.5816   87.9191   11.5530 C.ar    1  UNL1        0.0147
     13 C          62.7903   83.0370   11.8343 C.3     1  UNL1        0.0949
     14 C          62.6310   84.3748   11.1748 C.2     1  UNL1        0.2266
     15 O          63.2754   84.6373    9.8459 O.2     1  UNL1       -0.2748
     16 N          61.8275   85.4501   11.8441 N.am    1  UNL1       -0.2839
     17 H          61.4046   85.2778   12.7163 H       1  UNL1        0.1549
     18 C          66.0762   93.7821   12.3675 C.3     1  UNL1        0.1720
     19 O          66.5882   93.9057   13.7720 O.3     1  UNL1       -0.3742
     20 H          67.1614   94.6852   13.8398 H       1  UNL1        0.2113
     21 C          66.4776   94.7899   11.3315 C.ar    1  UNL1        0.0855
     22 C          66.0168   96.2157   11.2634 C.ar    1  UNL1        0.1158
     23 N          66.6647   96.8558   10.0715 N.ar    1  UNL1       -0.2228
     24 C          67.5260   95.8255    9.4031 C.ar    1  UNL1        0.1749
     25 N          67.4104   94.5487   10.1818 N.ar    1  UNL1       -0.3361
     26 H          67.8666   93.7013    9.9747 H       1  UNL1        0.1673
@<TRIPOS>BOND
     1    13    14    1
     2    14    15    2
     3    14    16   am
     4    16     7    1
     5     7     8   ar
     6     8     9   ar
     7     9    10   ar
     8    10    11   ar
     9    11     1    1
    10     1     2   ar
    11     2     3   ar
    12     3     4   ar
    13     4    18    1
    14    18    19    1
    15    18    21    1
    16    21    22   ar
    17    22    23   ar
    18    23    24   ar
    19    24    25   ar
    20     4     5   ar
    21     5     6   ar
    22    11    12   ar
    23    12     7   ar
    24     6     1   ar
    25    25    21   ar
    26    16    17    1
    27    19    20    1
    28    25    26    1
@<TRIPOS>MOLECULE
*****
 26 28 0 0 0
SMALL
GASTEIGER

@<TRIPOS>ATOM
      1 C          61.9963   88.9969   10.5993 C.ar    1  UNL1        0.0000
      2 C          62.6408   88.1778   11.6781 C.ar    1  UNL1       -0.0002
      3 C          63.4029   88.8540   12.7791 C.ar    1  UNL1       -0.0016
      4 C          63.5203   90.3492   12.8013 C.ar    1  UNL1        0.0099
      5 C          62.8758   91.1683   11.7225 C.ar    1  UNL1       -0.0016
      6 C          62.1138   90.4921   10.6215 C.ar    1  UNL1       -0.0002
      7 C          59.4469   88.4103    7.6150 C.ar    1  UNL1        0.0503
      8 C          59.7103   86.9685    7.2964 C.ar    1  UNL1        0.0147
      9 C          60.7357   86.2027    8.0787 C.ar    1  UNL1        0.0013
     10 C          61.4977   86.8788    9.1797 C.ar    1  UNL1        0.0001
     11 C          61.2343   88.3207    9.4983 C.ar    1  UNL1        0.0012
     12 C          60.2089   89.0865    8.7159 C.ar    1  UNL1        0.0147
     13 C          57.8308   90.9788    5.0574 C.3     1  UNL1        0.0949
     14 C          58.8562   90.2130    5.8397 C.2     1  UNL1        0.2266
     15 O          60.3165   90.4841    5.6292 O.2     1  UNL1       -0.2748
     16 N          58.4215   89.1761    6.8326 N.am    1  UNL1       -0.2839
     17 H          57.4631   88.9982    6.9708 H       1  UNL1        0.1549
     18 C          64.2823   91.0254   13.9022 C.3     1  UNL1        0.1720
     19 O          63.6583   91.1871   15.2567 O.3     1  UNL1       -0.3742
     20 H          64.2799   91.6411   15.8469 H       1  UNL1        0.2113
     21 C          65.6683   91.5400   13.6487 C.ar    1  UNL1        0.0855
     22 C          66.0992   92.3724   12.4777 C.ar    1  UNL1        0.1158
     23 N          67.5639   92.6594   12.6270 N.ar    1  UNL1       -0.2228
     24 C          68.0383   92.0042   13.8903 C.ar    1  UNL1        0.1749
     25 N          66.8667   91.3124   14.5217 N.ar    1  UNL1       -0.3361
     26 H          66.8816   90.7991   15.3617 H       1  UNL1        0.1673
@<TRIPOS>BOND
     1    13    14    1
     2    14    15    2
     3    14    16   am
     4    16     7    1
     5     7     8   ar
     6     8     9   ar
     7     9    10   ar
     8    10    11   ar
     9    11     1    1
    10     1     2   ar
    11     2     3   ar
    12     3     4   ar
    13     4    18    1
    14    18    19    1
    15    18    21    1
    16    21    22   ar
    17    22    23   ar
    18    23    24   ar
    19    24    25   ar
    20     4     5   ar
    21     5     6   ar
    22    11    12   ar
    23    12     7   ar
    24     6     1   ar
    25    25    21   ar
    26    16    17    1
    27    19    20    1
    28    25    26    1
@<TRIPOS>MOLECULE
*****
 26 28 0 0 0
SMALL
GASTEIGER

@<TRIPOS>ATOM
      1 C          63.1723   90.3029   11.1656 C.ar    1  UNL1        0.0000
      2 C          63.5854   90.2424   12.6063 C.ar    1  UNL1       -0.0002
      3 C          64.5372   91.2626   13.1571 C.ar    1  UNL1       -0.0016
      4 C          65.0759   92.3433   12.2671 C.ar    1  UNL1        0.0099
      5 C          64.6627   92.4037   10.8263 C.ar    1  UNL1       -0.0016
      6 C          63.7109   91.3835   10.2756 C.ar    1  UNL1       -0.0002
      7 C          61.5610   86.8001   10.2251 C.ar    1  UNL1        0.0503
      8 C          60.3169   87.2423    9.5134 C.ar    1  UNL1        0.0147
      9 C          60.0246   88.7047    9.3524 C.ar    1  UNL1        0.0013
     10 C          60.9763   89.7249    9.9032 C.ar    1  UNL1        0.0001
     11 C          62.2204   89.2827   10.6149 C.ar    1  UNL1        0.0012
     12 C          62.5128   87.8203   10.7759 C.ar    1  UNL1        0.0147
     13 C          62.7160   83.3619   11.8360 C.3     1  UNL1        0.0949
     14 C          62.4237   84.8243   11.6750 C.2     1  UNL1        0.2266
     15 O          62.7016   85.7733   12.8029 O.2     1  UNL1       -0.2748
     16 N          61.8534   85.3377   10.3861 N.am    1  UNL1       -0.2839
     17 H          61.6710   84.7148    9.6459 H       1  UNL1        0.1549
     18 C          66.0277   93.3634   12.8178 C.3     1  UNL1        0.1720
     19 O          66.1301   94.7161   12.1776 O.3     1  UNL1       -0.3742
     20 H          66.7862   95.2498   12.6527 H       1  UNL1        0.2113
     21 C          66.8769   93.0309   14.0086 C.ar    1  UNL1        0.0855
     22 C          66.4130   92.9731   15.4338 C.ar    1  UNL1        0.1158
     23 N          67.5886   92.6043   16.2894 N.ar    1  UNL1       -0.2228
     24 C          68.7792   92.4342   15.3928 C.ar    1  UNL1        0.1749
     25 N          68.3393   92.6979   13.9832 N.ar    1  UNL1       -0.3361
     26 H          68.9102   92.6592   13.1821 H       1  UNL1        0.1673
@<TRIPOS>BOND
     1    13    14    1
     2    14    15    2
     3    14    16   am
     4    16     7    1
     5     7     8   ar
     6     8     9   ar
     7     9    10   ar
     8    10    11   ar
     9    11     1    1
    10     1     2   ar
    11     2     3   ar
    12     3     4   ar
    13     4    18    1
    14    18    19    1
    15    18    21    1
    16    21    22   ar
    17    22    23   ar
    18    23    24   ar
    19    24    25   ar
    20     4     5   ar
    21     5     6   ar
    22    11    12   ar
    23    12     7   ar
    24     6     1   ar
    25    25    21   ar
    26    16    17    1
    27    19    20    1
    28    25    26    1
@<TRIPOS>MOLECULE
*****
 26 28 0 0 0
SMALL
GASTEIGER

@<TRIPOS>ATOM
      1 C          63.8057   90.7692   11.4402 C.ar    1  UNL1        0.0000
      2 C          62.9830   90.6169   10.1953 C.ar    1  UNL1       -0.0002
      3 C          62.1442   89.3893    9.9961 C.ar    1  UNL1       -0.0016
      4 C          62.1282   88.3141   11.0419 C.ar    1  UNL1        0.0099
      5 C          62.9510   88.4664   12.2869 C.ar    1  UNL1       -0.0016
      6 C          63.7897   89.6939   12.4860 C.ar    1  UNL1       -0.0002
      7 C          66.1035   93.4998   13.1764 C.ar    1  UNL1        0.0503
      8 C          66.3221   94.4516   12.0379 C.ar    1  UNL1        0.0147
      9 C          65.7019   94.1760   10.7002 C.ar    1  UNL1        0.0013
     10 C          64.8632   92.9486   10.5010 C.ar    1  UNL1        0.0001
     11 C          64.6445   91.9967   11.6394 C.ar    1  UNL1        0.0012
     12 C          65.2647   92.2723   12.9771 C.ar    1  UNL1        0.0147
     13 C          68.6587   93.4257   16.2120 C.3     1  UNL1        0.0949
     14 C          68.0386   93.1500   14.8743 C.2     1  UNL1        0.2266
     15 O          68.7334   92.2490   13.8968 O.2     1  UNL1       -0.2748
     16 N          66.7236   93.7754   14.5141 N.am    1  UNL1       -0.2839
     17 H          66.2676   94.3668   15.1556 H       1  UNL1        0.1549
     18 C          61.2895   87.0866   10.8427 C.3     1  UNL1        0.1720
     19 O          61.1121   86.1090   11.9665 O.3     1  UNL1       -0.3742
     20 H          60.5458   85.3782   11.6729 H       1  UNL1        0.2113
     21 C          60.6281   86.8367    9.5199 C.ar    1  UNL1        0.0855
     22 C          61.1411   85.9388    8.4333 C.ar    1  UNL1        0.1158
     23 N          60.1676   85.9880    7.2932 N.ar    1  UNL1       -0.2228
     24 C          59.0529   86.9164    7.6751 C.ar    1  UNL1        0.1749
     25 N          59.3375   87.4409    9.0512 N.ar    1  UNL1       -0.3361
     26 H          58.7759   88.0710    9.5579 H       1  UNL1        0.1673
@<TRIPOS>BOND
     1    13    14    1
     2    14    15    2
     3    14    16   am
     4    16     7    1
     5     7     8   ar
     6     8     9   ar
     7     9    10   ar
     8    10    11   ar
     9    11     1    1
    10     1     2   ar
    11     2     3   ar
    12     3     4   ar
    13     4    18    1
    14    18    19    1
    15    18    21    1
    16    21    22   ar
    17    22    23   ar
    18    23    24   ar
    19    24    25   ar
    20     4     5   ar
    21     5     6   ar
    22    11    12   ar
    23    12     7   ar
    24     6     1   ar
    25    25    21   ar
    26    16    17    1
    27    19    20    1
    28    25    26    1
@<TRIPOS>MOLECULE
*****
 26 28 0 0 0
SMALL
GASTEIGER

@<TRIPOS>ATOM
      1 C          63.4416   88.8194   12.7949 C.ar    1  UNL1        0.0000
      2 C          64.0366   88.4202   14.1127 C.ar    1  UNL1       -0.0002
      3 C          64.6096   89.4649   15.0241 C.ar    1  UNL1       -0.0016
      4 C          64.5875   90.9086   14.6176 C.ar    1  UNL1        0.0099
      5 C          63.9924   91.3076   13.2997 C.ar    1  UNL1       -0.0016
      6 C          63.4195   90.2631   12.3884 C.ar    1  UNL1       -0.0002
      7 C          61.6147   87.1374    9.6991 C.ar    1  UNL1        0.0503
      8 C          61.7226   85.6857   10.0608 C.ar    1  UNL1        0.0147
      9 C          62.4035   85.2785   11.3339 C.ar    1  UNL1        0.0013
     10 C          62.9764   86.3230   12.2452 C.ar    1  UNL1        0.0001
     11 C          62.8686   87.7747   11.8835 C.ar    1  UNL1        0.0012
     12 C          62.1877   88.1819   10.6105 C.ar    1  UNL1        0.0147
     13 C          59.3806   89.1716    7.1261 C.3     1  UNL1        0.0949
     14 C          60.0614   88.7644    8.3992 C.2     1  UNL1        0.2266
     15 O          59.8697   89.5771    9.6453 O.2     1  UNL1       -0.2748
     16 N          60.9339   87.5446    8.4261 N.am    1  UNL1       -0.2839
     17 H          61.0597   87.0112    7.6082 H       1  UNL1        0.1549
     18 C          65.1604   91.9531   15.5289 C.3     1  UNL1        0.1720
     19 O          64.3110   92.5529   16.6100 O.3     1  UNL1       -0.3742
     20 H          64.8303   93.2065   17.1040 H       1  UNL1        0.2113
     21 C          66.5828   92.3979   15.3592 C.ar    1  UNL1        0.0855
     22 C          67.5384   91.9144   14.3089 C.ar    1  UNL1        0.1158
     23 N          68.8456   92.6220   14.5105 N.ar    1  UNL1       -0.2228
     24 C          68.6979   93.5428   15.6854 C.ar    1  UNL1        0.1749
     25 N          67.2994   93.4043   16.2099 N.ar    1  UNL1       -0.3361
     26 H          66.9187   93.8889   16.9777 H       1  UNL1        0.1673
@<TRIPOS>BOND
     1    13    14    1
     2    14    15    2
     3    14    16   am
     4    16     7    1
     5     7     8   ar
     6     8     9   ar
     7     9    10   ar
     8    10    11   ar
     9    11     1    1
    10     1     2   ar
    11     2     3   ar
    12     3     4   ar
    13     4    18    1
    14    18    19    1
    15    18    21    1
    16    21    22   ar
    17    22    23   ar
    18    23    24   ar
    19    24    25   ar
    20     4     5   ar
    21     5     6   ar
    22    11    12   ar
    23    12     7   ar
    24     6     1   ar
    25    25    21   ar
    26    16    17    1
    27    19    20    1
    28    25    26    1
@<TRIPOS>MOLECULE
*****
 26 28 0 0 0
SMALL
GASTEIGER

@<TRIPOS>ATOM
      1 C          63.9050   90.7343   11.5725 C.ar    1  UNL1        0.0000
      2 C          63.1448   90.5733   10.2895 C.ar    1  UNL1       -0.0002
      3 C          62.3237   89.3402   10.0539 C.ar    1  UNL1       -0.0016
      4 C          62.2630   88.2682   11.1013 C.ar    1  UNL1        0.0099
      5 C          63.0233   88.4293   12.3843 C.ar    1  UNL1       -0.0016
      6 C          63.8443   89.6623   12.6199 C.ar    1  UNL1       -0.0002
      7 C          65.7079   94.2147   10.9503 C.ar    1  UNL1        0.0503
      8 C          66.3681   94.4335   12.2792 C.ar    1  UNL1        0.0147
      9 C          66.2074   93.4193   13.3726 C.ar    1  UNL1        0.0013
     10 C          65.3864   92.1862   13.1370 C.ar    1  UNL1        0.0001
     11 C          64.7261   91.9674   11.8081 C.ar    1  UNL1        0.0012
     12 C          64.8869   92.9817   10.7147 C.ar    1  UNL1        0.0147
     13 C          67.3418   96.3743    8.0491 C.3     1  UNL1        0.0949
     14 C          67.1810   95.3600    9.1425 C.2     1  UNL1        0.2266
     15 O          68.3328   94.4769    9.5216 O.2     1  UNL1       -0.2748
     16 N          65.8686   95.2289    9.8569 N.am    1  UNL1       -0.2839
     17 H          65.1127   95.8086    9.6081 H       1  UNL1        0.1549
     18 C          61.4420   87.0352   10.8657 C.3     1  UNL1        0.1720
     19 O          61.4032   85.9508   11.9014 O.3     1  UNL1       -0.3742
     20 H          60.8305   85.2307   11.5942 H       1  UNL1        0.2113
     21 C          60.6598   86.8865    9.5945 C.ar    1  UNL1        0.0855
     22 C          60.9307   85.8931    8.5037 C.ar    1  UNL1        0.1158
     23 N          59.9077   86.0978    7.4259 N.ar    1  UNL1       -0.2228
     24 C          59.0046   87.2177    7.8505 C.ar    1  UNL1        0.1749
     25 N          59.4695   87.7052    9.1908 N.ar    1  UNL1       -0.3361
     26 H          59.0644   88.4344    9.7137 H       1  UNL1        0.1673
@<TRIPOS>BOND
     1    13    14    1
     2    14    15    2
     3    14    16   am
     4    16     7    1
     5     7     8   ar
     6     8     9   ar
     7     9    10   ar
     8    10    11   ar
     9    11     1    1
    10     1     2   ar
    11     2     3   ar
    12     3     4   ar
    13     4    18    1
    14    18    19    1
    15    18    21    1
    16    21    22   ar
    17    22    23   ar
    18    23    24   ar
    19    24    25   ar
    20     4     5   ar
    21     5     6   ar
    22    11    12   ar
    23    12     7   ar
    24     6     1   ar
    25    25    21   ar
    26    16    17    1
    27    19    20    1
    28    25    26    1
@<TRIPOS>MOLECULE
*****
 26 28 0 0 0
SMALL
GASTEIGER

@<TRIPOS>ATOM
      1 C          63.9843   90.8999   11.7024 C.ar    1  UNL1        0.0000
      2 C          63.1908   90.7222   10.4420 C.ar    1  UNL1       -0.0002
      3 C          62.3657   89.4853   10.2432 C.ar    1  UNL1       -0.0016
      4 C          62.3341   88.4262   11.3050 C.ar    1  UNL1        0.0099
      5 C          63.1276   88.6040   12.5655 C.ar    1  UNL1       -0.0016
      6 C          63.9527   89.8408   12.7642 C.ar    1  UNL1       -0.0002
      7 C          65.7867   94.3613   10.9813 C.ar    1  UNL1        0.0503
      8 C          66.4595   94.6104   12.2986 C.ar    1  UNL1        0.0147
      9 C          66.3073   93.6226   13.4171 C.ar    1  UNL1        0.0013
     10 C          65.4822   92.3858   13.2184 C.ar    1  UNL1        0.0001
     11 C          64.8094   92.1368   11.9012 C.ar    1  UNL1        0.0012
     12 C          64.9616   93.1245   10.7826 C.ar    1  UNL1        0.0147
     13 C          67.3841   96.4206    7.9884 C.3     1  UNL1        0.0949
     14 C          67.2318   95.4328    9.1069 C.2     1  UNL1        0.2266
     15 O          68.3726   94.5288    9.4697 O.2     1  UNL1       -0.2748
     16 N          65.9389   95.3491    9.8628 N.am    1  UNL1       -0.2839
     17 H          65.1902   95.9424    9.6247 H       1  UNL1        0.1549
     18 C          61.5091   87.1894   11.1063 C.3     1  UNL1        0.1720
     19 O          60.0888   87.3026   10.6371 O.3     1  UNL1       -0.3742
     20 H          59.7018   86.4164   10.5612 H       1  UNL1        0.2113
     21 C          62.1042   85.8394   11.3767 C.ar    1  UNL1        0.0855
     22 C          62.6784   84.9075   10.3512 C.ar    1  UNL1        0.1158
     23 N          63.1588   83.6764   11.0608 N.ar    1  UNL1       -0.2228
     24 C          62.8815   83.8475   12.5251 C.ar    1  UNL1        0.1749
     25 N          62.2298   85.1843   12.7203 N.ar    1  UNL1       -0.3361
     26 H          61.9360   85.5649   13.5794 H       1  UNL1        0.1673
@<TRIPOS>BOND
     1    13    14    1
     2    14    15    2
     3    14    16   am
     4    16     7    1
     5     7     8   ar
     6     8     9   ar
     7     9    10   ar
     8    10    11   ar
     9    11     1    1
    10     1     2   ar
    11     2     3   ar
    12     3     4   ar
    13     4    18    1
    14    18    19    1
    15    18    21    1
    16    21    22   ar
    17    22    23   ar
    18    23    24   ar
    19    24    25   ar
    20     4     5   ar
    21     5     6   ar
    22    11    12   ar
    23    12     7   ar
    24     6     1   ar
    25    25    21   ar
    26    16    17    1
    27    19    20    1
    28    25    26    1
