@<TRIPOS>MOLECULE
*****
 56 62 0 0 0
SMALL
GASTEIGER

@<TRIPOS>ATOM
      1 N          62.5795   94.8309   -5.6079 N.3     1  UNL1       -0.1862
      2 C          61.6639   94.3773   -6.7060 C.3     1  UNL1        0.1775
      3 C          60.1863   94.2907   -6.4627 C.2     1  UNL1        0.2452
      4 O          59.2706   93.8371   -7.5609 O.2     1  UNL1       -0.2732
      5 N          59.6243   94.6576   -5.1212 N.am    1  UNL1       -0.2541
      6 C          58.1467   94.5710   -4.8779 C.3     1  UNL1        0.1577
      7 C          57.5848   94.9379   -3.5364 C.2     1  UNL1        0.2445
      8 O          56.1072   94.8512   -3.2931 O.2     1  UNL1       -0.2731
      9 N          58.5004   95.3915   -2.4382 N.am    1  UNL1       -0.2705
     10 C          59.9780   95.4781   -2.6816 C.3     1  UNL1        0.1359
     11 C          60.5400   95.1111   -4.0231 C.3     1  UNL1        0.1908
     12 N          62.0175   95.1978   -4.2665 N.am    1  UNL1       -0.1863
     13 C          62.9332   95.6514   -3.1683 C.2     1  UNL1        0.3191
     14 O          62.3712   96.0183   -1.8268 O.2     1  UNL1       -0.2512
     15 N          64.4108   95.7380   -3.4116 N.am    1  UNL1       -0.2836
     16 H          64.7796   95.4972   -4.2921 H       1  UNL1        0.1513
     17 C          64.0571   94.9175   -5.8513 C.3     1  UNL1        0.1188
     18 C          65.4190   92.7117   -5.6790 C.2     1  UNL1       -0.0034
     19 C          64.7761   93.7797   -6.5133 C.2     1  UNL1       -0.0071
     20 C          57.2311   94.1174   -5.9760 C.3     1  UNL1        0.0556
     21 C          56.4566   92.8414   -5.8276 C.ar    1  UNL1       -0.0198
     22 C          56.4819   92.0957   -4.5264 C.ar    1  UNL1       -0.0011
     23 C          55.7073   90.8197   -4.3781 C.ar    1  UNL1        0.0363
     24 C          54.9076   90.2895   -5.5310 C.ar    1  UNL1        0.1337
     25 O          54.1330   89.0135   -5.3826 O.3     1  UNL1       -0.5055
     26 C          54.8823   91.0352   -6.8323 C.ar    1  UNL1        0.0363
     27 C          55.6568   92.3112   -6.9806 C.ar    1  UNL1       -0.0011
     28 H          54.1488   88.5476   -4.5698 H       1  UNL1        0.2922
     29 C          57.9385   95.7584   -1.0968 C.3     1  UNL1        0.1217
     30 C          58.7881   95.6305    0.1328 C.ar    1  UNL1        0.0135
     31 C          59.1822   96.8560    0.9028 C.ar    1  UNL1       -0.0012
     32 C          60.0319   96.7282    2.1323 C.ar    1  UNL1       -0.0002
     33 C          60.4874   95.3750    2.5918 C.ar    1  UNL1        0.0016
     34 C          60.0933   94.1495    1.8218 C.ar    1  UNL1        0.0214
     35 C          60.3895   92.6941    2.0313 C.ar    1  UNL1        0.0721
     36 C          59.7230   91.9224    0.9312 C.ar    1  UNL1        0.0805
     37 N          59.0148   92.9008    0.0419 N.ar    1  UNL1       -0.3241
     38 C          58.2177   92.5623   -1.1829 C.3     1  UNL1        0.1305
     39 C          59.2436   94.2773    0.5923 C.ar    1  UNL1        0.0577
     40 C          61.2086   92.1124    3.1453 C.2     1  UNL1        0.2505
     41 O          62.6984   92.2867    3.1509 O.2     1  UNL1       -0.2699
     42 N          60.5378   91.3565    4.2537 N.am    1  UNL1       -0.2759
     43 C          61.3567   90.7749    5.3677 C.3     1  UNL1        0.0962
     44 C          60.6859   90.0190    6.4761 C.3     1  UNL1        0.0511
     45 C          59.1961   89.8447    6.4706 C.3     1  UNL1        0.1188
     46 C          58.3771   90.4264    5.3565 C.3     1  UNL1        0.0511
     47 C          59.0479   91.1823    4.2481 C.3     1  UNL1        0.0962
     48 O          58.5252   89.0888    7.5790 O.3     1  UNL1       -0.3535
     49 C          58.9815   87.7023    7.9245 C.3     1  UNL1        0.1740
     50 C          65.3264   96.1915   -2.3135 C.3     1  UNL1        0.1177
     51 C          65.1043   95.7172   -0.9080 C.ar    1  UNL1       -0.0025
     52 C          64.9241   94.2543   -0.6297 C.ar    1  UNL1       -0.0026
     53 C          64.7020   93.7800    0.7759 C.ar    1  UNL1       -0.0003
     54 C          64.6602   94.7686    1.9032 C.ar    1  UNL1       -0.0000
     55 C          64.8404   96.2315    1.6250 C.ar    1  UNL1       -0.0003
     56 C          65.0625   96.7059    0.2194 C.ar    1  UNL1       -0.0026
@<TRIPOS>BOND
     1    18    19    2
     2    19    17    1
     3    17     1    1
     4     1     2    1
     5     2     3    1
     6     3     4    2
     7     3     5   am
     8     5     6    1
     9     6    20    1
    10    20    21    1
    11    21    22   ar
    12    22    23   ar
    13    23    24   ar
    14    24    25    1
    15    24    26   ar
    16    26    27   ar
    17     6     7    1
    18     7     8    2
    19     7     9   am
    20     9    29    1
    21    29    30    1
    22    30    31   ar
    23    31    32   ar
    24    32    33   ar
    25    33    34   ar
    26    34    35   ar
    27    35    40    1
    28    40    41    2
    29    40    42   am
    30    42    43    1
    31    43    44    1
    32    44    45    1
    33    45    48    1
    34    48    49    1
    35    45    46    1
    36    46    47    1
    37    35    36   ar
    38    36    37   ar
    39    37    38    1
    40    37    39   ar
    41     9    10    1
    42    11    10    1
    43    11    12    1
    44    12    13   am
    45    13    14    2
    46    13    15   am
    47    15    50    1
    48    50    51    1
    49    51    52   ar
    50    52    53   ar
    51    53    54   ar
    52    54    55   ar
    53    55    56   ar
    54    12     1    1
    55    56    51   ar
    56    11     5    1
    57    27    21   ar
    58    39    30   ar
    59    39    34   ar
    60    47    42    1
    61    25    28    1
    62    15    16    1
