@<TRIPOS>MOLECULE
*****
 31 34 0 0 0
SMALL
GASTEIGER

@<TRIPOS>ATOM
      1 C          63.7274   90.4974   12.6627 C.ar    1  UNL1        0.0180
      2 C          63.1221   91.2201   11.4960 C.ar    1  UNL1        0.0029
      3 C          62.3434   90.4591   10.4643 C.ar    1  UNL1        0.0189
      4 C          62.1700   88.9753   10.5993 C.ar    1  UNL1        0.0789
      5 C          62.7753   88.2526   11.7660 C.ar    1  UNL1        0.0670
      6 C          63.5539   89.0136   12.7977 C.ar    1  UNL1        0.0174
      7 N          61.3913   88.2142    9.5676 N.ar    1  UNL1       -0.2852
      8 C          60.1324   88.6759    8.8952 C.ar    1  UNL1        0.1023
      9 C          59.6979   87.6049    7.9392 C.ar    1  UNL1        0.1196
     10 N          60.6882   86.4812    8.0206 N.ar    1  UNL1       -0.2220
     11 C          61.7348   86.8578    9.0270 C.ar    1  UNL1        0.1829
     12 N          62.6019   86.7687   11.9010 N.am    1  UNL1       -0.2788
     13 C          63.2067   86.0461   13.0680 C.2     1  UNL1        0.2556
     14 O          63.9849   86.8072   14.1000 O.2     1  UNL1       -0.2693
     15 H          62.0911   86.2691   11.2237 H       1  UNL1        0.1552
     16 C          63.0333   84.5622   13.2031 C.ar    1  UNL1        0.0831
     17 C          62.8043   83.8142   14.4830 C.ar    1  UNL1        0.0116
     18 C          62.6879   82.3555   14.1529 C.ar    1  UNL1        0.0086
     19 C          62.8450   82.2021   12.6690 C.ar    1  UNL1        0.0472
     20 S          63.0584   83.5659   12.0820 S.2     1  UNL1       -0.0809
     21 C          62.7971   80.9116   11.9061 C.ar    1  UNL1        0.0873
     22 C          63.0352   80.9064   10.4251 C.ar    1  UNL1        0.0197
     23 C          62.9872   79.6159    9.6622 C.ar    1  UNL1        0.0032
     24 C          62.7011   78.3304   10.3803 C.ar    1  UNL1        0.0207
     25 C          62.4630   78.3354   11.8613 C.ar    1  UNL1        0.0988
     26 N          62.5110   79.6261   12.6241 N.ar    1  UNL1       -0.2433
     27 N          65.2679   92.4894   13.3018 N.2     1  UNL1       -0.0873
     28 C          64.5060   91.2585   13.6944 C.2     1  UNL1        0.0974
     29 C          64.5229   90.7885   15.1188 C.3     1  UNL1        0.0555
     30 C          67.4983   92.9440   14.5544 C.3     1  UNL1        0.2885
     31 O          66.0466   93.2505   14.3335 O.2     1  UNL1       -0.3734
@<TRIPOS>BOND
     1    30    31    1
     2    31    27    1
     3    27    28    2
     4    28    29    1
     5    28     1    1
     6     1     2   ar
     7     2     3   ar
     8     3     4   ar
     9     4     7    1
    10     7     8   ar
    11     8     9   ar
    12     9    10   ar
    13    10    11   ar
    14     4     5   ar
    15     5    12    1
    16    12    13   am
    17    13    14    2
    18    13    16    1
    19    16    17   ar
    20    17    18   ar
    21    18    19   ar
    22    19    21    1
    23    21    22   ar
    24    22    23   ar
    25    23    24   ar
    26    24    25   ar
    27    25    26   ar
    28    19    20   ar
    29     5     6   ar
    30     6     1   ar
    31    11     7   ar
    32    20    16   ar
    33    26    21   ar
    34    12    15    1
@<TRIPOS>MOLECULE
*****
 31 34 0 0 0
SMALL
GASTEIGER

@<TRIPOS>ATOM
      1 C          62.9933   82.2374   12.3100 C.ar    1  UNL1        0.0180
      2 C          62.4699   81.7329   13.6220 C.ar    1  UNL1        0.0029
      3 C          62.3009   82.6771   14.7752 C.ar    1  UNL1        0.0189
      4 C          62.6555   84.1259   14.6164 C.ar    1  UNL1        0.0789
      5 C          63.1790   84.6304   13.3044 C.ar    1  UNL1        0.0670
      6 C          63.3479   83.6862   12.1512 C.ar    1  UNL1        0.0174
      7 N          62.4866   85.0701   15.7696 N.ar    1  UNL1       -0.2852
      8 C          63.5815   85.5813   16.6583 C.ar    1  UNL1        0.1023
      9 C          62.9647   86.4961   17.6745 C.ar    1  UNL1        0.1196
     10 N          61.4885   86.5503   17.4139 N.ar    1  UNL1       -0.2220
     11 C          61.1930   85.6691   16.2365 C.ar    1  UNL1        0.1829
     12 N          63.5335   86.0793   13.1455 N.am    1  UNL1       -0.2788
     13 C          62.6450   86.9856   12.3462 C.2     1  UNL1        0.2556
     14 O          61.4018   86.4431   11.7056 O.2     1  UNL1       -0.2693
     15 H          64.3495   86.4353   13.5659 H       1  UNL1        0.1552
     16 C          62.9996   88.4345   12.1873 C.ar    1  UNL1        0.0831
     17 C          62.4232   89.3770   11.1727 C.ar    1  UNL1        0.0116
     18 C          63.0602   90.7202   11.3735 C.ar    1  UNL1        0.0086
     19 C          64.0302   90.6077   12.5122 C.ar    1  UNL1        0.0472
     20 S          63.9927   89.1950   13.0151 S.2     1  UNL1       -0.0809
     21 C          64.8871   91.7136   13.0529 C.ar    1  UNL1        0.0873
     22 C          65.4334   92.7601   12.1275 C.ar    1  UNL1        0.0197
     23 C          66.2903   93.8660   12.6682 C.ar    1  UNL1        0.0032
     24 C          66.6010   93.9255   14.1345 C.ar    1  UNL1        0.0207
     25 C          66.0548   92.8790   15.0600 C.ar    1  UNL1        0.0988
     26 N          65.1978   91.7731   14.5192 N.ar    1  UNL1       -0.2433
     27 N          62.6663   79.8816   11.2643 N.2     1  UNL1       -0.0873
     28 C          63.1623   81.2932   11.1568 C.2     1  UNL1        0.0974
     29 C          63.8271   81.7604    9.8960 C.3     1  UNL1        0.0555
     30 C          62.8884   77.4582   10.3546 C.3     1  UNL1        0.2885
     31 O          62.8352   78.9374   10.1111 O.2     1  UNL1       -0.3734
@<TRIPOS>BOND
     1    30    31    1
     2    31    27    1
     3    27    28    2
     4    28    29    1
     5    28     1    1
     6     1     2   ar
     7     2     3   ar
     8     3     4   ar
     9     4     7    1
    10     7     8   ar
    11     8     9   ar
    12     9    10   ar
    13    10    11   ar
    14     4     5   ar
    15     5    12    1
    16    12    13   am
    17    13    14    2
    18    13    16    1
    19    16    17   ar
    20    17    18   ar
    21    18    19   ar
    22    19    21    1
    23    21    22   ar
    24    22    23   ar
    25    23    24   ar
    26    24    25   ar
    27    25    26   ar
    28    19    20   ar
    29     5     6   ar
    30     6     1   ar
    31    11     7   ar
    32    20    16   ar
    33    26    21   ar
    34    12    15    1
@<TRIPOS>MOLECULE
*****
 31 34 0 0 0
SMALL
GASTEIGER

@<TRIPOS>ATOM
      1 C          64.5371   91.7487   12.1291 C.ar    1  UNL1        0.0180
      2 C          63.8278   92.1736   10.8775 C.ar    1  UNL1        0.0029
      3 C          62.9096   91.2182   10.1747 C.ar    1  UNL1        0.0189
      4 C          62.7005   89.8379   10.7234 C.ar    1  UNL1        0.0789
      5 C          63.4097   89.4131   11.9750 C.ar    1  UNL1        0.0670
      6 C          64.3280   90.3685   12.6778 C.ar    1  UNL1        0.0174
      7 N          61.7822   88.8826   10.0206 N.ar    1  UNL1       -0.2852
      8 C          62.1364   87.5022    9.5525 C.ar    1  UNL1        0.1023
      9 C          60.9216   86.9063    8.9051 C.ar    1  UNL1        0.1196
     10 N          59.8166   87.9184    8.9730 N.ar    1  UNL1       -0.2220
     11 C          60.3485   89.1398    9.6624 C.ar    1  UNL1        0.1829
     12 N          63.2007   88.0328   12.5238 N.am    1  UNL1       -0.2788
     13 C          63.9085   87.6085   13.7763 C.2     1  UNL1        0.2556
     14 O          64.8254   88.5645   14.4801 O.2     1  UNL1       -0.2693
     15 H          62.5989   87.4053   12.0619 H       1  UNL1        0.1552
     16 C          63.6995   86.2282   14.3251 C.ar    1  UNL1        0.0831
     17 C          63.9584   85.7922   15.7368 C.ar    1  UNL1        0.0116
     18 C          63.6138   84.3361   15.8428 C.ar    1  UNL1        0.0086
     19 C          63.1419   83.8723   14.4966 C.ar    1  UNL1        0.0472
     20 S          63.1948   85.0417   13.5586 S.2     1  UNL1       -0.0809
     21 C          62.6954   82.4831   14.1493 C.ar    1  UNL1        0.0873
     22 C          63.6092   81.5702   13.3867 C.ar    1  UNL1        0.0197
     23 C          63.1627   80.1810   13.0395 C.ar    1  UNL1        0.0032
     24 C          61.8023   79.7046   13.4547 C.ar    1  UNL1        0.0207
     25 C          60.8884   80.6175   14.2173 C.ar    1  UNL1        0.0988
     26 N          61.3350   82.0067   14.5646 N.ar    1  UNL1       -0.2433
     27 N          65.7077   92.5568   14.3032 N.2     1  UNL1       -0.0873
     28 C          65.4554   92.7041   12.8319 C.2     1  UNL1        0.0974
     29 C          66.1213   93.8068   12.0635 C.3     1  UNL1        0.0555
     30 C          67.6698   92.9924   15.9495 C.3     1  UNL1        0.2885
     31 O          66.6259   93.5122   15.0060 O.2     1  UNL1       -0.3734
@<TRIPOS>BOND
     1    30    31    1
     2    31    27    1
     3    27    28    2
     4    28    29    1
     5    28     1    1
     6     1     2   ar
     7     2     3   ar
     8     3     4   ar
     9     4     7    1
    10     7     8   ar
    11     8     9   ar
    12     9    10   ar
    13    10    11   ar
    14     4     5   ar
    15     5    12    1
    16    12    13   am
    17    13    14    2
    18    13    16    1
    19    16    17   ar
    20    17    18   ar
    21    18    19   ar
    22    19    21    1
    23    21    22   ar
    24    22    23   ar
    25    23    24   ar
    26    24    25   ar
    27    25    26   ar
    28    19    20   ar
    29     5     6   ar
    30     6     1   ar
    31    11     7   ar
    32    20    16   ar
    33    26    21   ar
    34    12    15    1
@<TRIPOS>MOLECULE
*****
 31 34 0 0 0
SMALL
GASTEIGER

@<TRIPOS>ATOM
      1 C          63.4744   85.2072   13.8319 C.ar    1  UNL1        0.0180
      2 C          64.0927   86.3301   14.6108 C.ar    1  UNL1        0.0029
      3 C          64.0780   87.7241   14.0572 C.ar    1  UNL1        0.0189
      4 C          63.4450   87.9952   12.7246 C.ar    1  UNL1        0.0789
      5 C          62.8267   86.8723   11.9457 C.ar    1  UNL1        0.0670
      6 C          62.8414   85.4783   12.4994 C.ar    1  UNL1        0.0174
      7 N          63.4303   89.3892   12.1709 N.ar    1  UNL1       -0.2852
      8 C          63.0270   89.7814   10.7804 C.ar    1  UNL1        0.1023
      9 C          63.1637   91.2703   10.6607 C.ar    1  UNL1        0.1196
     10 N          63.6515   91.7984   11.9772 N.ar    1  UNL1       -0.2220
     11 C          63.8162   90.6358   12.9106 C.ar    1  UNL1        0.1829
     12 N          62.1937   87.1433   10.6131 N.am    1  UNL1       -0.2788
     13 C          60.7677   87.6029   10.5397 C.2     1  UNL1        0.2556
     14 O          59.9748   87.7915   11.7989 O.2     1  UNL1       -0.2693
     15 H          62.7141   87.0195    9.7866 H       1  UNL1        0.1552
     16 C          60.1347   87.8740    9.2070 C.ar    1  UNL1        0.0831
     17 C          59.4071   86.8748    8.3571 C.ar    1  UNL1        0.0116
     18 C          58.9408   87.5751    7.1152 C.ar    1  UNL1        0.0086
     19 C          59.3803   89.0069    7.1976 C.ar    1  UNL1        0.0472
     20 S          60.1181   89.1916    8.4905 S.2     1  UNL1       -0.0809
     21 C          59.1264   90.0677    6.1680 C.ar    1  UNL1        0.0873
     22 C          60.2755   90.6820    5.4249 C.ar    1  UNL1        0.0197
     23 C          60.0217   91.7428    4.3953 C.ar    1  UNL1        0.0032
     24 C          58.6187   92.1895    4.1088 C.ar    1  UNL1        0.0207
     25 C          57.4695   91.5753    4.8519 C.ar    1  UNL1        0.0988
     26 N          57.7235   90.5144    5.8815 N.ar    1  UNL1       -0.2433
     27 N          62.4062   82.8456   14.0102 N.2     1  UNL1       -0.0873
     28 C          63.4892   83.8132   14.3856 C.2     1  UNL1        0.0974
     29 C          64.5868   83.3867   15.3147 C.3     1  UNL1        0.0555
     30 C          62.4415   80.2752   13.6334 C.3     1  UNL1        0.2885
     31 O          62.4209   81.4516   14.5639 O.2     1  UNL1       -0.3734
@<TRIPOS>BOND
     1    30    31    1
     2    31    27    1
     3    27    28    2
     4    28    29    1
     5    28     1    1
     6     1     2   ar
     7     2     3   ar
     8     3     4   ar
     9     4     7    1
    10     7     8   ar
    11     8     9   ar
    12     9    10   ar
    13    10    11   ar
    14     4     5   ar
    15     5    12    1
    16    12    13   am
    17    13    14    2
    18    13    16    1
    19    16    17   ar
    20    17    18   ar
    21    18    19   ar
    22    19    21    1
    23    21    22   ar
    24    22    23   ar
    25    23    24   ar
    26    24    25   ar
    27    25    26   ar
    28    19    20   ar
    29     5     6   ar
    30     6     1   ar
    31    11     7   ar
    32    20    16   ar
    33    26    21   ar
    34    12    15    1
@<TRIPOS>MOLECULE
*****
 31 34 0 0 0
SMALL
GASTEIGER

@<TRIPOS>ATOM
      1 C          59.7913   88.6559    7.3953 C.ar    1  UNL1        0.0180
      2 C          59.4917   87.1964    7.2220 C.ar    1  UNL1        0.0029
      3 C          60.2076   86.1791    8.0601 C.ar    1  UNL1        0.0189
      4 C          61.2233   86.6212    9.0715 C.ar    1  UNL1        0.0789
      5 C          61.5229   88.0807    9.2448 C.ar    1  UNL1        0.0670
      6 C          60.8069   89.0980    8.4067 C.ar    1  UNL1        0.0174
      7 N          61.9392   85.6039    9.9096 N.ar    1  UNL1       -0.2852
      8 C          61.7138   85.3487   11.3704 C.ar    1  UNL1        0.1023
      9 C          62.6416   84.2502   11.7977 C.ar    1  UNL1        0.1196
     10 N          63.4405   83.8265   10.6009 N.ar    1  UNL1       -0.2220
     11 C          63.0064   84.6631    9.4340 C.ar    1  UNL1        0.1829
     12 N          62.5386   88.5229   10.2562 N.am    1  UNL1       -0.2788
     13 C          62.0948   88.9816   11.6136 C.2     1  UNL1        0.2556
     14 O          60.6353   88.9982   11.9596 O.2     1  UNL1       -0.2693
     15 H          63.4965   88.5121   10.0291 H       1  UNL1        0.1552
     16 C          63.1105   89.4238   12.6250 C.ar    1  UNL1        0.0831
     17 C          63.5438   88.6509   13.8353 C.ar    1  UNL1        0.0116
     18 C          64.5723   89.4659   14.5621 C.ar    1  UNL1        0.0086
     19 C          64.7745   90.7426   13.8008 C.ar    1  UNL1        0.0472
     20 S          63.8710   90.7165   12.6037 S.2     1  UNL1       -0.0809
     21 C          65.7149   91.8506   14.1717 C.ar    1  UNL1        0.0873
     22 C          66.6668   91.6747   15.3176 C.ar    1  UNL1        0.0197
     23 C          67.6072   92.7827   15.6884 C.ar    1  UNL1        0.0032
     24 C          67.5960   94.0669   14.9133 C.ar    1  UNL1        0.0207
     25 C          66.6442   94.2430   13.7673 C.ar    1  UNL1        0.0988
     26 N          65.7037   93.1348   13.3966 N.ar    1  UNL1       -0.2433
     27 N          59.8582   90.6864    5.7758 N.2     1  UNL1       -0.0873
     28 C          59.0753   89.6732    6.5572 C.2     1  UNL1        0.0974
     29 C          57.5764   89.6774    6.5004 C.3     1  UNL1        0.0555
     30 C          59.8783   92.4353    3.8546 C.3     1  UNL1        0.2885
     31 O          59.1423   91.7037    4.9377 O.2     1  UNL1       -0.3734
@<TRIPOS>BOND
     1    30    31    1
     2    31    27    1
     3    27    28    2
     4    28    29    1
     5    28     1    1
     6     1     2   ar
     7     2     3   ar
     8     3     4   ar
     9     4     7    1
    10     7     8   ar
    11     8     9   ar
    12     9    10   ar
    13    10    11   ar
    14     4     5   ar
    15     5    12    1
    16    12    13   am
    17    13    14    2
    18    13    16    1
    19    16    17   ar
    20    17    18   ar
    21    18    19   ar
    22    19    21    1
    23    21    22   ar
    24    22    23   ar
    25    23    24   ar
    26    24    25   ar
    27    25    26   ar
    28    19    20   ar
    29     5     6   ar
    30     6     1   ar
    31    11     7   ar
    32    20    16   ar
    33    26    21   ar
    34    12    15    1
@<TRIPOS>MOLECULE
*****
 31 34 0 0 0
SMALL
GASTEIGER

@<TRIPOS>ATOM
      1 C          60.7368   87.2010    9.2208 C.ar    1  UNL1        0.0180
      2 C          60.7452   85.7015    9.2586 C.ar    1  UNL1        0.0029
      3 C          61.5864   84.9815   10.2706 C.ar    1  UNL1        0.0189
      4 C          62.4192   85.7610   11.2446 C.ar    1  UNL1        0.0789
      5 C          62.4108   87.2604   11.2068 C.ar    1  UNL1        0.0670
      6 C          61.5696   87.9805   10.1948 C.ar    1  UNL1        0.0174
      7 N          63.2604   85.0410   12.2565 N.ar    1  UNL1       -0.2852
      8 C          63.5575   85.5097   13.6501 C.ar    1  UNL1        0.1023
      9 C          64.4329   84.4843   14.3074 C.ar    1  UNL1        0.1196
     10 N          64.6769   83.3817   13.3201 N.ar    1  UNL1       -0.2220
     11 C          63.9522   83.7258   12.0526 C.ar    1  UNL1        0.1829
     12 N          63.2436   88.0400   12.1808 N.am    1  UNL1       -0.2788
     13 C          62.6599   89.2306   12.8821 C.2     1  UNL1        0.2556
     14 O          61.2434   89.6417   12.6093 O.2     1  UNL1       -0.2693
     15 H          64.1733   87.7702   12.3599 H       1  UNL1        0.1552
     16 C          63.4927   90.0101   13.8562 C.ar    1  UNL1        0.0831
     17 C          63.0999   90.3759   15.2568 C.ar    1  UNL1        0.0116
     18 C          64.2290   91.1526   15.8670 C.ar    1  UNL1        0.0086
     19 C          65.3195   91.2667   14.8433 C.ar    1  UNL1        0.0472
     20 S          64.8644   90.5606   13.6006 S.2     1  UNL1       -0.0809
     21 C          66.6341   91.9644   15.0296 C.ar    1  UNL1        0.0873
     22 C          66.8449   92.8642   16.2112 C.ar    1  UNL1        0.0197
     23 C          68.1596   93.5619   16.3975 C.ar    1  UNL1        0.0032
     24 C          69.2636   93.3599   15.4023 C.ar    1  UNL1        0.0207
     25 C          69.0528   92.4601   14.2207 C.ar    1  UNL1        0.0988
     26 N          67.7381   91.7624   14.0344 N.ar    1  UNL1       -0.2433
     27 N          60.1290   89.3781    7.9398 N.2     1  UNL1       -0.0873
     28 C          59.8956   87.9210    8.2089 C.2     1  UNL1        0.0974
     29 C          58.8209   87.1839    7.4660 C.3     1  UNL1        0.0555
     30 C          59.8621   90.4466    5.5867 C.3     1  UNL1        0.2885
     31 O          59.2878   90.0981    6.9279 O.2     1  UNL1       -0.3734
@<TRIPOS>BOND
     1    30    31    1
     2    31    27    1
     3    27    28    2
     4    28    29    1
     5    28     1    1
     6     1     2   ar
     7     2     3   ar
     8     3     4   ar
     9     4     7    1
    10     7     8   ar
    11     8     9   ar
    12     9    10   ar
    13    10    11   ar
    14     4     5   ar
    15     5    12    1
    16    12    13   am
    17    13    14    2
    18    13    16    1
    19    16    17   ar
    20    17    18   ar
    21    18    19   ar
    22    19    21    1
    23    21    22   ar
    24    22    23   ar
    25    23    24   ar
    26    24    25   ar
    27    25    26   ar
    28    19    20   ar
    29     5     6   ar
    30     6     1   ar
    31    11     7   ar
    32    20    16   ar
    33    26    21   ar
    34    12    15    1
@<TRIPOS>MOLECULE
*****
 31 34 0 0 0
SMALL
GASTEIGER

@<TRIPOS>ATOM
      1 C          60.6992   87.5089    9.3573 C.ar    1  UNL1        0.0180
      2 C          60.6149   86.1291    9.9395 C.ar    1  UNL1        0.0029
      3 C          61.4772   85.7543   11.1083 C.ar    1  UNL1        0.0189
      4 C          62.4238   86.7592   11.6948 C.ar    1  UNL1        0.0789
      5 C          62.5081   88.1390   11.1125 C.ar    1  UNL1        0.0670
      6 C          61.6458   88.5138    9.9437 C.ar    1  UNL1        0.0174
      7 N          63.2861   86.3844   12.8635 N.ar    1  UNL1       -0.2852
      8 C          63.6717   84.9912   13.2638 C.ar    1  UNL1        0.1023
      9 C          64.5381   85.0827   14.4849 C.ar    1  UNL1        0.1196
     10 N          64.6879   86.5325   14.8392 N.ar    1  UNL1       -0.2220
     11 C          63.9142   87.3370   13.8372 C.ar    1  UNL1        0.1829
     12 N          63.4547   89.1440   11.6990 N.am    1  UNL1       -0.2788
     13 C          63.5499   90.5191   11.1072 C.2     1  UNL1        0.2556
     14 O          62.6985   90.8891    9.9290 O.2     1  UNL1       -0.2693
     15 H          64.0135   88.9012   12.4723 H       1  UNL1        0.1552
     16 C          64.4965   91.5241   11.6937 C.ar    1  UNL1        0.0831
     17 C          64.7810   92.8914   11.1463 C.ar    1  UNL1        0.0116
     18 C          65.7851   93.5507   12.0448 C.ar    1  UNL1        0.0086
     19 C          66.1212   92.5907   13.1474 C.ar    1  UNL1        0.0472
     20 S          65.3248   91.3383   12.9304 S.2     1  UNL1       -0.0809
     21 C          67.0844   92.8396   14.2699 C.ar    1  UNL1        0.0873
     22 C          67.5630   91.6964   15.1150 C.ar    1  UNL1        0.0197
     23 C          68.5263   91.9453   16.2374 C.ar    1  UNL1        0.0032
     24 C          69.0111   93.3374   16.5150 C.ar    1  UNL1        0.0207
     25 C          68.5326   94.4807   15.6699 C.ar    1  UNL1        0.0988
     26 N          67.5693   94.2317   14.5474 N.ar    1  UNL1       -0.2433
     27 N          59.8427   89.2924    7.6734 N.2     1  UNL1       -0.0873
     28 C          59.8369   87.8837    8.1885 C.2     1  UNL1        0.0974
     29 C          58.9688   86.8497    7.5349 C.3     1  UNL1        0.0555
     30 C          59.5187   90.5701    5.4345 C.3     1  UNL1        0.2885
     31 O          58.9804   89.6672    6.5047 O.2     1  UNL1       -0.3734
@<TRIPOS>BOND
     1    30    31    1
     2    31    27    1
     3    27    28    2
     4    28    29    1
     5    28     1    1
     6     1     2   ar
     7     2     3   ar
     8     3     4   ar
     9     4     7    1
    10     7     8   ar
    11     8     9   ar
    12     9    10   ar
    13    10    11   ar
    14     4     5   ar
    15     5    12    1
    16    12    13   am
    17    13    14    2
    18    13    16    1
    19    16    17   ar
    20    17    18   ar
    21    18    19   ar
    22    19    21    1
    23    21    22   ar
    24    22    23   ar
    25    23    24   ar
    26    24    25   ar
    27    25    26   ar
    28    19    20   ar
    29     5     6   ar
    30     6     1   ar
    31    11     7   ar
    32    20    16   ar
    33    26    21   ar
    34    12    15    1
@<TRIPOS>MOLECULE
*****
 31 34 0 0 0
SMALL
GASTEIGER

@<TRIPOS>ATOM
      1 C          63.4588   85.0497   14.6350 C.ar    1  UNL1        0.0180
      2 C          63.2469   85.4357   16.0689 C.ar    1  UNL1        0.0029
      3 C          63.3782   86.8703   16.4867 C.ar    1  UNL1        0.0189
      4 C          63.7213   87.9190   15.4706 C.ar    1  UNL1        0.0789
      5 C          63.9332   87.5330   14.0367 C.ar    1  UNL1        0.0670
      6 C          63.8020   86.0983   13.6189 C.ar    1  UNL1        0.0174
      7 N          63.8526   89.3536   15.8884 N.ar    1  UNL1       -0.2852
      8 C          64.9006   90.3172   15.4159 C.ar    1  UNL1        0.1023
      9 C          64.6546   91.6357   16.0875 C.ar    1  UNL1        0.1196
     10 N          63.4546   91.4870   16.9751 N.ar    1  UNL1       -0.2220
     11 C          62.9589   90.0766   16.8520 C.ar    1  UNL1        0.1829
     12 N          64.2764   88.5817   13.0205 N.am    1  UNL1       -0.2788
     13 C          63.2951   89.6719   12.7071 C.2     1  UNL1        0.2556
     14 O          61.9705   89.7136   13.4099 O.2     1  UNL1       -0.2693
     15 H          65.1458   88.5543   12.5593 H       1  UNL1        0.1552
     16 C          63.6383   90.7206   11.6910 C.ar    1  UNL1        0.0831
     17 C          62.9270   90.9550   10.3913 C.ar    1  UNL1        0.0116
     18 C          63.6021   92.0983    9.6931 C.ar    1  UNL1        0.0086
     19 C          64.7305   92.5703   10.5614 C.ar    1  UNL1        0.0472
     20 S          64.7529   91.7189   11.7961 S.2     1  UNL1       -0.0809
     21 C          65.6714   93.6961   10.2496 C.ar    1  UNL1        0.0873
     22 C          66.9709   93.4170    9.5544 C.ar    1  UNL1        0.0197
     23 C          67.9117   94.5428    9.2427 C.ar    1  UNL1        0.0032
     24 C          67.5531   95.9479    9.6261 C.ar    1  UNL1        0.0207
     25 C          66.2536   96.2272   10.3214 C.ar    1  UNL1        0.0988
     26 N          65.3128   95.1013   10.6331 N.ar    1  UNL1       -0.2433
     27 N          64.1640   83.0820   13.0921 N.2     1  UNL1       -0.0873
     28 C          63.3275   83.6150   14.2172 C.2     1  UNL1        0.0974
     29 C          62.3598   82.7134   14.9247 C.3     1  UNL1        0.0555
     30 C          63.1685   81.2832   11.5035 C.3     1  UNL1        0.2885
     31 O          64.0328   81.6473   12.6743 O.2     1  UNL1       -0.3734
@<TRIPOS>BOND
     1    30    31    1
     2    31    27    1
     3    27    28    2
     4    28    29    1
     5    28     1    1
     6     1     2   ar
     7     2     3   ar
     8     3     4   ar
     9     4     7    1
    10     7     8   ar
    11     8     9   ar
    12     9    10   ar
    13    10    11   ar
    14     4     5   ar
    15     5    12    1
    16    12    13   am
    17    13    14    2
    18    13    16    1
    19    16    17   ar
    20    17    18   ar
    21    18    19   ar
    22    19    21    1
    23    21    22   ar
    24    22    23   ar
    25    23    24   ar
    26    24    25   ar
    27    25    26   ar
    28    19    20   ar
    29     5     6   ar
    30     6     1   ar
    31    11     7   ar
    32    20    16   ar
    33    26    21   ar
    34    12    15    1
@<TRIPOS>MOLECULE
*****
 31 34 0 0 0
SMALL
GASTEIGER

@<TRIPOS>ATOM
      1 C          59.5045   89.1071    7.5370 C.ar    1  UNL1        0.0180
      2 C          59.0106   87.7919    8.0626 C.ar    1  UNL1        0.0029
      3 C          59.7703   87.0837    9.1449 C.ar    1  UNL1        0.0189
      4 C          61.0239   87.6908    9.7016 C.ar    1  UNL1        0.0789
      5 C          61.5178   89.0060    9.1760 C.ar    1  UNL1        0.0670
      6 C          60.7581   89.7141    8.0937 C.ar    1  UNL1        0.0174
      7 N          61.7836   86.9826   10.7839 N.ar    1  UNL1       -0.2852
      8 C          61.9117   85.4967   10.9437 C.ar    1  UNL1        0.1023
      9 C          62.7558   85.2318   12.1550 C.ar    1  UNL1        0.1196
     10 N          63.1494   86.5540   12.7439 N.ar    1  UNL1       -0.2220
     11 C          62.5486   87.6361   11.8965 C.ar    1  UNL1        0.1829
     12 N          62.7714   89.6131    9.7327 N.am    1  UNL1       -0.2788
     13 C          62.6873   90.7863   10.6636 C.2     1  UNL1        0.2556
     14 O          61.3496   91.3524   11.0378 O.2     1  UNL1       -0.2693
     15 H          63.6494   89.2415    9.4871 H       1  UNL1        0.1552
     16 C          63.9409   91.3934   11.2203 C.ar    1  UNL1        0.0831
     17 C          64.9708   92.1581   10.4427 C.ar    1  UNL1        0.0116
     18 C          66.0511   92.5798   11.3941 C.ar    1  UNL1        0.0086
     19 C          65.6889   92.0755   12.7597 C.ar    1  UNL1        0.0472
     20 S          64.3847   91.3423   12.6522 S.2     1  UNL1       -0.0809
     21 C          66.4902   92.2703   14.0126 C.ar    1  UNL1        0.0873
     22 C          65.8014   92.3125   15.3445 C.ar    1  UNL1        0.0197
     23 C          66.6026   92.5073   16.5974 C.ar    1  UNL1        0.0032
     24 C          68.0928   92.6600   16.5186 C.ar    1  UNL1        0.0207
     25 C          68.7817   92.6178   15.1868 C.ar    1  UNL1        0.0988
     26 N          67.9803   92.4230   13.9338 N.ar    1  UNL1       -0.2433
     27 N          59.4701   90.7015    5.4860 N.2     1  UNL1       -0.0873
     28 C          58.7448   89.8152    6.4546 C.2     1  UNL1        0.0974
     29 C          57.2598   89.6370    6.3410 C.3     1  UNL1        0.0555
     30 C          59.3559   92.5312    3.6450 C.3     1  UNL1        0.2885
     31 O          58.7104   91.4097    4.4037 O.2     1  UNL1       -0.3734
@<TRIPOS>BOND
     1    30    31    1
     2    31    27    1
     3    27    28    2
     4    28    29    1
     5    28     1    1
     6     1     2   ar
     7     2     3   ar
     8     3     4   ar
     9     4     7    1
    10     7     8   ar
    11     8     9   ar
    12     9    10   ar
    13    10    11   ar
    14     4     5   ar
    15     5    12    1
    16    12    13   am
    17    13    14    2
    18    13    16    1
    19    16    17   ar
    20    17    18   ar
    21    18    19   ar
    22    19    21    1
    23    21    22   ar
    24    22    23   ar
    25    23    24   ar
    26    24    25   ar
    27    25    26   ar
    28    19    20   ar
    29     5     6   ar
    30     6     1   ar
    31    11     7   ar
    32    20    16   ar
    33    26    21   ar
    34    12    15    1
