@<TRIPOS>MOLECULE
*****
 37 41 0 0 0
SMALL
GASTEIGER

@<TRIPOS>ATOM
      1 C          61.0260   94.8569   -1.0517 C.ar    1  UNL1        0.2355
      2 N          59.5769   94.8613   -1.4390 N.ar    1  UNL1       -0.1889
      3 C          58.5634   94.1915   -0.5591 C.ar    1  UNL1        0.2029
      4 N          58.9991   93.5173    0.7081 N.ar    1  UNL1       -0.2049
      5 C          60.4482   93.5129    1.0953 C.ar    1  UNL1        0.1671
      6 C          61.4616   94.1827    0.2155 C.ar    1  UNL1        0.1099
      7 C          62.8098   94.0171    0.8520 C.ar    1  UNL1        0.1279
      8 N          62.6295   93.2450    2.1252 N.ar    1  UNL1       -0.1663
      9 N          61.1700   92.9334    2.2756 N.ar    1  UNL1       -0.2357
     10 C          60.5423   92.1753    3.4076 C.3     1  UNL1        0.1096
     11 C          59.0877   92.3637    3.7212 C.3     1  UNL1        0.0418
     12 C          58.4601   91.6056    4.8532 C.3     1  UNL1        0.0744
     13 N          59.2871   90.6590    5.6716 N.3     1  UNL1       -0.2688
     14 C          60.7418   90.4705    5.3580 C.3     1  UNL1        0.0744
     15 C          61.3694   91.2286    4.2260 C.3     1  UNL1        0.0418
     16 C          58.6595   89.9009    6.8036 C.3     1  UNL1        0.0991
     17 C          59.4641   88.8913    7.5673 C.ar    1  UNL1       -0.0062
     18 C          60.3026   89.3265    8.7325 C.ar    1  UNL1       -0.0030
     19 C          61.1071   88.3168    9.4961 C.ar    1  UNL1        0.0036
     20 C          61.0732   86.8719    9.0948 C.ar    1  UNL1        0.0714
     21 C          60.2347   86.4366    7.9297 C.ar    1  UNL1        0.0036
     22 C          59.4301   87.4464    7.1659 C.ar    1  UNL1       -0.0030
     23 C          61.8778   85.8623    9.8585 C.3     1  UNL1        0.4186
     24 F          62.6823   84.8527   10.6223 F       1  UNL1       -0.1659
     25 F          62.7723   85.6754    8.6691 F       1  UNL1       -0.1659
     26 F          60.9832   86.0492   11.0480 F       1  UNL1       -0.1659
     27 O          62.0395   95.5268   -1.9316 O.3     1  UNL1       -0.4359
     28 C          64.0686   93.1971   -5.2035 C.ar    1  UNL1        0.1059
     29 C          63.3968   94.5011   -5.5171 C.ar    1  UNL1        0.0215
     30 C          62.7205   95.2776   -4.4264 C.ar    1  UNL1        0.0389
     31 C          62.7159   94.7502   -3.0222 C.ar    1  UNL1        0.1473
     32 C          63.3877   93.4462   -2.7086 C.ar    1  UNL1        0.0389
     33 C          64.0640   92.6696   -3.7993 C.ar    1  UNL1        0.0215
     34 C          65.4213   91.6440   -7.3848 C.3     1  UNL1        0.1816
     35 S          64.7449   92.4205   -6.2942 S.O2    1  UNL1        0.0105
     36 O          65.8841   92.1124   -5.3683 O.2     1  UNL1       -0.1686
     37 O          63.6058   92.7287   -7.2201 O.2     1  UNL1       -0.1686
@<TRIPOS>BOND
     1    34    35    1
     2    35    36    2
     3    35    37    2
     4    35    28    1
     5    28    29   ar
     6    29    30   ar
     7    30    31   ar
     8    31    27    1
     9    27     1    1
    10     1     2   ar
    11     2     3   ar
    12     3     4   ar
    13     4     5   ar
    14     5     6   ar
    15     6     7   ar
    16     7     8   ar
    17     8     9   ar
    18     9    10    1
    19    10    11    1
    20    11    12    1
    21    12    13    1
    22    13    16    1
    23    16    17    1
    24    17    18   ar
    25    18    19   ar
    26    19    20   ar
    27    20    23    1
    28    23    24    1
    29    23    25    1
    30    23    26    1
    31    20    21   ar
    32    21    22   ar
    33    13    14    1
    34    14    15    1
    35    31    32   ar
    36    32    33   ar
    37    33    28   ar
    38     6     1   ar
    39    15    10    1
    40     9     5   ar
    41    22    17   ar
@<TRIPOS>MOLECULE
*****
 37 41 0 0 0
SMALL
GASTEIGER

@<TRIPOS>ATOM
      1 C          63.7990   87.3395   13.6111 C.ar    1  UNL1        0.2355
      2 N          64.0671   88.7838   13.9148 N.ar    1  UNL1       -0.1889
      3 C          63.4982   89.8540   13.0312 C.ar    1  UNL1        0.2029
      4 N          62.6612   89.4801   11.8439 N.ar    1  UNL1       -0.2049
      5 C          62.3931   88.0359   11.5402 C.ar    1  UNL1        0.1671
      6 C          62.9620   86.9656   12.4238 C.ar    1  UNL1        0.1099
      7 C          62.5310   85.6364   11.8782 C.ar    1  UNL1        0.1279
      8 N          61.6958   85.8853   10.6574 N.ar    1  UNL1       -0.1663
      9 N          61.6105   87.3682   10.4486 N.ar    1  UNL1       -0.2357
     10 C          60.8724   88.0618    9.3422 C.3     1  UNL1        0.1096
     11 C          60.1208   87.2580    8.3229 C.3     1  UNL1        0.0418
     12 C          59.3826   87.9516    7.2165 C.3     1  UNL1        0.0744
     13 N          59.3960   89.4490    7.1295 N.3     1  UNL1       -0.2688
     14 C          60.1475   90.2528    8.1488 C.3     1  UNL1        0.0744
     15 C          60.8857   89.5592    9.2551 C.3     1  UNL1        0.0418
     16 C          58.6578   90.1426    6.0231 C.3     1  UNL1        0.0991
     17 C          59.4111   90.9603    5.0163 C.ar    1  UNL1       -0.0062
     18 C          60.8826   90.7424    4.8228 C.ar    1  UNL1       -0.0030
     19 C          61.6358   91.5602    3.8159 C.ar    1  UNL1        0.0036
     20 C          60.9177   92.5959    3.0025 C.ar    1  UNL1        0.0714
     21 C          59.4463   92.8139    3.1960 C.ar    1  UNL1        0.0036
     22 C          58.6930   91.9961    4.2029 C.ar    1  UNL1       -0.0030
     23 C          61.6711   93.4137    1.9957 C.3     1  UNL1        0.4186
     24 F          62.4244   94.2315    0.9889 F       1  UNL1       -0.1659
     25 F          62.6687   92.3043    1.8411 F       1  UNL1       -0.1659
     26 F          60.6735   94.5231    2.1503 F       1  UNL1       -0.1659
     27 O          64.3679   86.2691   14.4948 O.3     1  UNL1       -0.4359
     28 C          62.9825   82.0111   14.0481 C.ar    1  UNL1        0.1059
     29 C          62.2008   82.9689   14.8975 C.ar    1  UNL1        0.0215
     30 C          62.6626   84.3882   15.0464 C.ar    1  UNL1        0.0389
     31 C          63.9061   84.8498   14.3459 C.ar    1  UNL1        0.1473
     32 C          64.6878   83.8919   13.4964 C.ar    1  UNL1        0.0389
     33 C          64.2260   82.4726   13.3476 C.ar    1  UNL1        0.0215
     34 C          62.0589   79.1723   13.7504 C.3     1  UNL1        0.1816
     35 S          62.5207   80.5917   13.8992 S.O2    1  UNL1        0.0105
     36 O          63.9168   80.1099   14.1617 O.2     1  UNL1       -0.1686
     37 O          61.1246   81.0734   13.6368 O.2     1  UNL1       -0.1686
@<TRIPOS>BOND
     1    34    35    1
     2    35    36    2
     3    35    37    2
     4    35    28    1
     5    28    29   ar
     6    29    30   ar
     7    30    31   ar
     8    31    27    1
     9    27     1    1
    10     1     2   ar
    11     2     3   ar
    12     3     4   ar
    13     4     5   ar
    14     5     6   ar
    15     6     7   ar
    16     7     8   ar
    17     8     9   ar
    18     9    10    1
    19    10    11    1
    20    11    12    1
    21    12    13    1
    22    13    16    1
    23    16    17    1
    24    17    18   ar
    25    18    19   ar
    26    19    20   ar
    27    20    23    1
    28    23    24    1
    29    23    25    1
    30    23    26    1
    31    20    21   ar
    32    21    22   ar
    33    13    14    1
    34    14    15    1
    35    31    32   ar
    36    32    33   ar
    37    33    28   ar
    38     6     1   ar
    39    15    10    1
    40     9     5   ar
    41    22    17   ar
@<TRIPOS>MOLECULE
*****
 37 41 0 0 0
SMALL
GASTEIGER

@<TRIPOS>ATOM
      1 C          66.4437   93.1972   14.1455 C.ar    1  UNL1        0.2355
      2 N          67.8229   92.7627   14.5442 N.ar    1  UNL1       -0.1889
      3 C          68.0764   91.3368   14.9347 C.ar    1  UNL1        0.2029
      4 N          66.9508   90.3454   14.9264 N.ar    1  UNL1       -0.2049
      5 C          65.5716   90.7799   14.5277 C.ar    1  UNL1        0.1671
      6 C          65.3181   92.2058   14.1373 C.ar    1  UNL1        0.1099
      7 C          63.8642   92.3407   13.7932 C.ar    1  UNL1        0.1279
      8 N          63.2194   90.9981   13.9710 N.ar    1  UNL1       -0.1663
      9 N          64.2746   90.0335   14.4250 N.ar    1  UNL1       -0.2357
     10 C          64.0689   88.5780   14.7237 C.3     1  UNL1        0.1096
     11 C          63.6741   88.1442   16.1042 C.3     1  UNL1        0.0418
     12 C          63.4684   86.6887   16.4030 C.3     1  UNL1        0.0744
     13 N          63.6575   85.6670   15.3212 N.3     1  UNL1       -0.2688
     14 C          64.0524   86.1008   13.9407 C.3     1  UNL1        0.0744
     15 C          64.2580   87.5563   13.6419 C.3     1  UNL1        0.0418
     16 C          63.4518   84.2115   15.6199 C.3     1  UNL1        0.0991
     17 C          63.3172   83.2270   14.4963 C.ar    1  UNL1       -0.0062
     18 C          62.2108   82.2143   14.5149 C.ar    1  UNL1       -0.0030
     19 C          62.0762   81.2298   13.3912 C.ar    1  UNL1        0.0036
     20 C          63.0480   81.2579   12.2489 C.ar    1  UNL1        0.0714
     21 C          64.1545   82.2706   12.2303 C.ar    1  UNL1        0.0036
     22 C          64.2890   83.2551   13.3540 C.ar    1  UNL1       -0.0030
     23 C          62.9134   80.2734   11.1253 C.3     1  UNL1        0.4186
     24 F          62.7788   79.2890   10.0016 F       1  UNL1       -0.1659
     25 F          62.3191   79.2736   12.0725 F       1  UNL1       -0.1659
     26 F          63.5077   81.2732   10.1781 F       1  UNL1       -0.1659
     27 O          66.1900   94.6232   13.7550 O.3     1  UNL1       -0.4359
     28 C          66.2370   95.8097    9.4146 C.ar    1  UNL1        0.1059
     29 C          66.0701   96.8560   10.4763 C.ar    1  UNL1        0.0215
     30 C          66.0544   96.4605   11.9232 C.ar    1  UNL1        0.0389
     31 C          66.2057   95.0187   12.3082 C.ar    1  UNL1        0.1473
     32 C          66.3726   93.9723   11.2464 C.ar    1  UNL1        0.0389
     33 C          66.3883   94.3679    9.7996 C.ar    1  UNL1        0.0215
     34 C          66.2683   96.6008    6.5209 C.3     1  UNL1        0.1816
     35 S          66.2526   96.2053    7.9677 S.O2    1  UNL1        0.0105
     36 O          64.9103   96.8546    8.1307 O.2     1  UNL1       -0.1686
     37 O          67.5949   95.5559    7.8047 O.2     1  UNL1       -0.1686
@<TRIPOS>BOND
     1    34    35    1
     2    35    36    2
     3    35    37    2
     4    35    28    1
     5    28    29   ar
     6    29    30   ar
     7    30    31   ar
     8    31    27    1
     9    27     1    1
    10     1     2   ar
    11     2     3   ar
    12     3     4   ar
    13     4     5   ar
    14     5     6   ar
    15     6     7   ar
    16     7     8   ar
    17     8     9   ar
    18     9    10    1
    19    10    11    1
    20    11    12    1
    21    12    13    1
    22    13    16    1
    23    16    17    1
    24    17    18   ar
    25    18    19   ar
    26    19    20   ar
    27    20    23    1
    28    23    24    1
    29    23    25    1
    30    23    26    1
    31    20    21   ar
    32    21    22   ar
    33    13    14    1
    34    14    15    1
    35    31    32   ar
    36    32    33   ar
    37    33    28   ar
    38     6     1   ar
    39    15    10    1
    40     9     5   ar
    41    22    17   ar
@<TRIPOS>MOLECULE
*****
 37 41 0 0 0
SMALL
GASTEIGER

@<TRIPOS>ATOM
      1 C          62.6864   85.4981   13.3002 C.ar    1  UNL1        0.2355
      2 N          62.1312   85.7160   11.9239 N.ar    1  UNL1       -0.1889
      3 C          62.3482   87.0261   11.2265 C.ar    1  UNL1        0.2029
      4 N          63.1204   88.1183   11.9053 N.ar    1  UNL1       -0.2049
      5 C          63.6756   87.9004   13.2815 C.ar    1  UNL1        0.1671
      6 C          63.4586   86.5903   13.9790 C.ar    1  UNL1        0.1099
      7 C          64.1205   86.6655   15.3231 C.ar    1  UNL1        0.1279
      8 N          64.7465   88.0221   15.4562 N.ar    1  UNL1       -0.1663
      9 N          64.4715   88.7853   14.1945 N.ar    1  UNL1       -0.2357
     10 C          64.9147   90.1873   13.8977 C.3     1  UNL1        0.1096
     11 C          65.9697   90.8355   14.7443 C.3     1  UNL1        0.0418
     12 C          66.4128   92.2374   14.4476 C.3     1  UNL1        0.0744
     13 N          65.8010   92.9913   13.3042 N.3     1  UNL1       -0.2688
     14 C          64.7460   92.3431   12.4576 C.3     1  UNL1        0.0744
     15 C          64.3028   90.9412   12.7544 C.3     1  UNL1        0.0418
     16 C          66.2441   94.3933   13.0075 C.3     1  UNL1        0.0991
     17 C          66.2761   94.8858   11.5910 C.ar    1  UNL1       -0.0062
     18 C          66.8768   94.0325   10.5135 C.ar    1  UNL1       -0.0030
     19 C          66.9087   94.5250    9.0971 C.ar    1  UNL1        0.0036
     20 C          66.3399   95.8710    8.7581 C.ar    1  UNL1        0.0714
     21 C          65.7392   96.7243    9.8355 C.ar    1  UNL1        0.0036
     22 C          65.7073   96.2317   11.2520 C.ar    1  UNL1       -0.0030
     23 C          66.3719   96.3635    7.3416 C.3     1  UNL1        0.4186
     24 F          66.4037   96.8560    5.9252 F       1  UNL1       -0.1659
     25 F          67.8658   96.2290    7.3285 F       1  UNL1       -0.1659
     26 F          64.8780   96.4979    7.3547 F       1  UNL1       -0.1659
     27 O          62.4695   84.1879   13.9978 O.3     1  UNL1       -0.4359
     28 C          62.7172   80.3377   11.6816 C.ar    1  UNL1        0.1059
     29 C          62.2195   80.3311   13.0966 C.ar    1  UNL1        0.0215
     30 C          62.1369   81.6145   13.8686 C.ar    1  UNL1        0.0389
     31 C          62.5521   82.9045   13.2257 C.ar    1  UNL1        0.1473
     32 C          63.0498   82.9112   11.8107 C.ar    1  UNL1        0.0389
     33 C          63.1324   81.6278   11.0386 C.ar    1  UNL1        0.0215
     34 C          62.8823   77.7709   10.1375 C.3     1  UNL1        0.1816
     35 S          62.7998   79.0543   10.9096 S.O2    1  UNL1        0.0105
     36 O          62.6269   78.2781   12.1814 O.2     1  UNL1       -0.1686
     37 O          62.9726   79.8305    9.6377 O.2     1  UNL1       -0.1686
@<TRIPOS>BOND
     1    34    35    1
     2    35    36    2
     3    35    37    2
     4    35    28    1
     5    28    29   ar
     6    29    30   ar
     7    30    31   ar
     8    31    27    1
     9    27     1    1
    10     1     2   ar
    11     2     3   ar
    12     3     4   ar
    13     4     5   ar
    14     5     6   ar
    15     6     7   ar
    16     7     8   ar
    17     8     9   ar
    18     9    10    1
    19    10    11    1
    20    11    12    1
    21    12    13    1
    22    13    16    1
    23    16    17    1
    24    17    18   ar
    25    18    19   ar
    26    19    20   ar
    27    20    23    1
    28    23    24    1
    29    23    25    1
    30    23    26    1
    31    20    21   ar
    32    21    22   ar
    33    13    14    1
    34    14    15    1
    35    31    32   ar
    36    32    33   ar
    37    33    28   ar
    38     6     1   ar
    39    15    10    1
    40     9     5   ar
    41    22    17   ar
@<TRIPOS>MOLECULE
*****
 37 41 0 0 0
SMALL
GASTEIGER

@<TRIPOS>ATOM
      1 C          60.8869   88.2266   10.7541 C.ar    1  UNL1        0.2355
      2 N          61.9354   89.2335   11.1240 N.ar    1  UNL1       -0.1889
      3 C          62.2554   90.3612   10.1882 C.ar    1  UNL1        0.2029
      4 N          61.5270   90.4820    8.8825 N.ar    1  UNL1       -0.2049
      5 C          60.4785   89.4752    8.5127 C.ar    1  UNL1        0.1671
      6 C          60.1584   88.3475    9.4485 C.ar    1  UNL1        0.1099
      7 C          59.0837   87.5124    8.8176 C.ar    1  UNL1        0.1279
      8 N          58.7397   88.1241    7.4920 N.ar    1  UNL1       -0.1663
      9 N          59.6017   89.3371    7.3035 N.ar    1  UNL1       -0.2357
     10 C          59.5891   90.2516    6.1145 C.3     1  UNL1        0.1096
     11 C          60.8707   90.5818    5.4087 C.3     1  UNL1        0.0418
     12 C          60.8582   91.4963    4.2198 C.3     1  UNL1        0.0744
     13 N          59.5639   92.0806    3.7366 N.3     1  UNL1       -0.2688
     14 C          58.2822   91.7503    4.4425 C.3     1  UNL1        0.0744
     15 C          58.2948   90.8359    5.6314 C.3     1  UNL1        0.0418
     16 C          59.5513   92.9950    2.5477 C.3     1  UNL1        0.0991
     17 C          60.8401   93.5383    2.0057 C.ar    1  UNL1       -0.0062
     18 C          61.9187   92.5992    1.5533 C.ar    1  UNL1       -0.0030
     19 C          63.2075   93.1425    1.0113 C.ar    1  UNL1        0.0036
     20 C          63.4178   94.6250    0.9217 C.ar    1  UNL1        0.0714
     21 C          62.3392   95.5642    1.3741 C.ar    1  UNL1        0.0036
     22 C          61.0504   95.0208    1.9161 C.ar    1  UNL1       -0.0030
     23 C          64.7066   95.1683    0.3797 C.3     1  UNL1        0.4186
     24 F          65.9954   95.7115   -0.1623 F       1  UNL1       -0.1659
     25 F          64.8963   95.9692    1.6338 F       1  UNL1       -0.1659
     26 F          64.5169   94.3674   -0.8743 F       1  UNL1       -0.1659
     27 O          60.5667   87.0988   11.6900 O.3     1  UNL1       -0.4359
     28 C          63.4431   83.6684   12.1462 C.ar    1  UNL1        0.1059
     29 C          62.9673   84.0718   10.7821 C.ar    1  UNL1        0.0215
     30 C          62.0085   85.2153   10.6300 C.ar    1  UNL1        0.0389
     31 C          61.5255   85.9553   11.8420 C.ar    1  UNL1        0.1473
     32 C          62.0014   85.5519   13.2062 C.ar    1  UNL1        0.0389
     33 C          62.9602   84.4084   13.3583 C.ar    1  UNL1        0.0215
     34 C          65.3607   81.3814   12.4504 C.3     1  UNL1        0.1816
     35 S          64.4019   82.5249   12.2983 S.O2    1  UNL1        0.0105
     36 O          64.8554   82.7167   10.8814 O.2     1  UNL1       -0.1686
     37 O          63.9484   82.3330   13.7152 O.2     1  UNL1       -0.1686
@<TRIPOS>BOND
     1    34    35    1
     2    35    36    2
     3    35    37    2
     4    35    28    1
     5    28    29   ar
     6    29    30   ar
     7    30    31   ar
     8    31    27    1
     9    27     1    1
    10     1     2   ar
    11     2     3   ar
    12     3     4   ar
    13     4     5   ar
    14     5     6   ar
    15     6     7   ar
    16     7     8   ar
    17     8     9   ar
    18     9    10    1
    19    10    11    1
    20    11    12    1
    21    12    13    1
    22    13    16    1
    23    16    17    1
    24    17    18   ar
    25    18    19   ar
    26    19    20   ar
    27    20    23    1
    28    23    24    1
    29    23    25    1
    30    23    26    1
    31    20    21   ar
    32    21    22   ar
    33    13    14    1
    34    14    15    1
    35    31    32   ar
    36    32    33   ar
    37    33    28   ar
    38     6     1   ar
    39    15    10    1
    40     9     5   ar
    41    22    17   ar
