@<TRIPOS>MOLECULE
*****
 39 41 0 0 0
SMALL
GASTEIGER

@<TRIPOS>ATOM
      1 C          63.8804   89.7632   15.8847 C.3     1  UNL1        0.0718
      2 C          63.1543   88.9801   16.9381 C.3     1  UNL1        0.0201
      3 C          62.9841   87.4975   16.7865 C.3     1  UNL1        0.0108
      4 C          63.5400   86.7981   15.5815 C.3     1  UNL1        0.0766
      5 C          64.2660   87.5812   14.5282 C.3     1  UNL1        0.0108
      6 C          64.4362   89.0638   14.6798 C.3     1  UNL1        0.0201
      7 C          63.3697   85.3155   15.4299 C.2     1  UNL1        0.2222
      8 O          62.4171   84.5749   16.3209 O.2     1  UNL1       -0.2751
      9 N          64.1523   84.5734   14.3873 N.am    1  UNL1       -0.3004
     10 H          64.7776   85.0595   13.8025 H       1  UNL1        0.1497
     11 C          63.9821   83.0909   14.2357 C.3     1  UNL1        0.1163
     12 C          63.8134   82.4909   12.8713 C.ar    1  UNL1        0.0013
     13 C          64.6485   82.9837   11.7269 C.ar    1  UNL1       -0.0027
     14 C          64.4799   82.3838   10.3624 C.ar    1  UNL1       -0.0003
     15 C          63.4762   81.2910   10.1424 C.ar    1  UNL1       -0.0001
     16 C          62.6411   80.7982   11.2869 C.ar    1  UNL1        0.0036
     17 C          62.8097   81.3981   12.6513 C.ar    1  UNL1        0.0691
     18 C          61.9746   80.9053   13.7957 C.3     1  UNL1        0.4183
     19 F          61.1395   80.4124   14.9402 F       1  UNL1       -0.1659
     20 F          61.2674   82.2270   13.8488 F       1  UNL1       -0.1659
     21 F          62.6819   79.5836   13.7426 F       1  UNL1       -0.1659
     22 N          64.0506   91.2458   16.0363 N.pl3   1  UNL1       -0.3045
     23 H          63.4344   91.7559   16.6101 H       1  UNL1        0.1496
     24 C          67.5863   92.8789   15.2734 C.ar    1  UNL1        0.2217
     25 N          66.4771   92.1736   15.9960 N.ar    1  UNL1       -0.1810
     26 C          65.1599   91.9511   15.3137 C.ar    1  UNL1        0.2216
     27 N          64.9519   92.4340   13.9089 N.ar    1  UNL1       -0.1808
     28 C          66.0611   93.1393   13.1863 C.ar    1  UNL1        0.2250
     29 N          67.3784   93.3617   13.8686 N.ar    1  UNL1       -0.1808
     30 C          69.4294   94.4946   16.1350 C.3     1  UNL1        0.1108
     31 N          68.9035   93.1013   15.9557 N.pl3   1  UNL1       -0.3012
     32 H          69.4229   92.3329   16.2858 H       1  UNL1        0.1497
     33 N          65.8532   93.6222   11.7815 N.pl3   1  UNL1       -0.2749
     34 C          65.2848   92.6969   10.7467 C.3     1  UNL1        0.1151
     35 C          66.2137   95.0304   11.4114 C.3     1  UNL1        0.1110
     36 C          65.9439   95.5339   10.0244 C.3     1  UNL1        0.0939
     37 N          67.0527   95.5830    9.0154 N.3     1  UNL1       -0.2688
     38 C          68.0009   94.4278    8.8862 C.3     1  UNL1        0.0897
     39 C          67.2134   96.7872    8.1357 C.3     1  UNL1        0.0897
@<TRIPOS>BOND
     1    30    31    1
     2    31    24    1
     3    24    25   ar
     4    25    26   ar
     5    26    22    1
     6    22     1    1
     7     1     2    1
     8     2     3    1
     9     3     4    1
    10     4     7    1
    11     7     8    2
    12     7     9   am
    13     9    11    1
    14    11    12    1
    15    12    13   ar
    16    13    14   ar
    17    14    15   ar
    18    15    16   ar
    19    16    17   ar
    20    17    18    1
    21    18    19    1
    22    18    20    1
    23    18    21    1
    24     4     5    1
    25     5     6    1
    26    26    27   ar
    27    27    28   ar
    28    28    33    1
    29    33    34    1
    30    33    35    1
    31    35    36    1
    32    36    37    1
    33    37    38    1
    34    37    39    1
    35    28    29   ar
    36    29    24   ar
    37     6     1    1
    38    17    12   ar
    39    31    32    1
    40    22    23    1
    41     9    10    1
@<TRIPOS>MOLECULE
*****
 39 41 0 0 0
SMALL
GASTEIGER

@<TRIPOS>ATOM
      1 C          63.8752   89.5940   15.7535 C.3     1  UNL1        0.0718
      2 C          64.4407   88.8295   14.5934 C.3     1  UNL1        0.0201
      3 C          64.2821   87.3394   14.5283 C.3     1  UNL1        0.0108
      4 C          63.5580   86.6137   15.6234 C.3     1  UNL1        0.0766
      5 C          62.9925   87.3782   16.7835 C.3     1  UNL1        0.0108
      6 C          63.1511   88.8684   16.8485 C.3     1  UNL1        0.0201
      7 C          63.3994   85.1235   15.5584 C.2     1  UNL1        0.2222
      8 O          64.2665   84.2394   16.4048 O.2     1  UNL1       -0.2751
      9 N          62.3736   84.5175   14.6469 N.am    1  UNL1       -0.3004
     10 H          61.8045   85.0978   14.0914 H       1  UNL1        0.1497
     11 C          62.2150   83.0274   14.5819 C.3     1  UNL1        0.1163
     12 C          62.5315   82.2941   13.3122 C.ar    1  UNL1        0.0013
     13 C          62.3884   80.8022   13.2521 C.ar    1  UNL1       -0.0027
     14 C          62.7048   80.0689   11.9824 C.ar    1  UNL1       -0.0003
     15 C          63.1644   80.8276   10.7727 C.ar    1  UNL1       -0.0001
     16 C          63.3075   82.3196   10.8329 C.ar    1  UNL1        0.0036
     17 C          62.9911   83.0528   12.1026 C.ar    1  UNL1        0.0691
     18 C          63.1342   84.5447   12.1627 C.3     1  UNL1        0.4183
     19 F          63.2774   86.0367   12.2228 F       1  UNL1       -0.1659
     20 F          61.7476   84.7000   11.6122 F       1  UNL1       -0.1659
     21 F          64.5209   84.3895   12.7132 F       1  UNL1       -0.1659
     22 N          64.0338   91.0842   15.8185 N.pl3   1  UNL1       -0.3045
     23 H          63.4655   91.6138   16.4233 H       1  UNL1        0.1496
     24 C          67.4582   92.7112   14.6452 C.ar    1  UNL1        0.2217
     25 N          66.4336   92.0280   15.5016 N.ar    1  UNL1       -0.1810
     26 C          65.0584   91.7675   14.9621 C.ar    1  UNL1        0.2216
     27 N          64.7078   92.1902   13.5663 N.ar    1  UNL1       -0.1808
     28 C          65.7324   92.8734   12.7099 C.ar    1  UNL1        0.2250
     29 N          67.1076   93.1339   13.2494 N.ar    1  UNL1       -0.1808
     30 C          69.0812   94.1617   16.0637 C.3     1  UNL1        0.1108
     31 N          68.8334   92.9718   15.1847 N.pl3   1  UNL1       -0.3012
     32 H          69.5733   92.3617   14.9619 H       1  UNL1        0.1497
     33 N          65.3819   93.2961   11.3140 N.pl3   1  UNL1       -0.2749
     34 C          64.7542   92.3152   10.3686 C.3     1  UNL1        0.1151
     35 C          65.6590   94.6998   10.8636 C.3     1  UNL1        0.1110
     36 C          67.0199   95.0684   10.3518 C.3     1  UNL1        0.0939
     37 N          67.4924   94.5401    9.0297 N.3     1  UNL1       -0.2688
     38 C          67.1379   95.2622    7.7636 C.3     1  UNL1        0.0897
     39 C          68.3193   93.2899    8.9738 C.3     1  UNL1        0.0897
@<TRIPOS>BOND
     1    30    31    1
     2    31    24    1
     3    24    25   ar
     4    25    26   ar
     5    26    22    1
     6    22     1    1
     7     1     2    1
     8     2     3    1
     9     3     4    1
    10     4     7    1
    11     7     8    2
    12     7     9   am
    13     9    11    1
    14    11    12    1
    15    12    13   ar
    16    13    14   ar
    17    14    15   ar
    18    15    16   ar
    19    16    17   ar
    20    17    18    1
    21    18    19    1
    22    18    20    1
    23    18    21    1
    24     4     5    1
    25     5     6    1
    26    26    27   ar
    27    27    28   ar
    28    28    33    1
    29    33    34    1
    30    33    35    1
    31    35    36    1
    32    36    37    1
    33    37    38    1
    34    37    39    1
    35    28    29   ar
    36    29    24   ar
    37     6     1    1
    38    17    12   ar
    39    31    32    1
    40    22    23    1
    41     9    10    1
@<TRIPOS>MOLECULE
*****
 39 41 0 0 0
SMALL
GASTEIGER

@<TRIPOS>ATOM
      1 C          63.5676   87.3570   15.7031 C.3     1  UNL1        0.0718
      2 C          63.0631   88.5697   16.4278 C.3     1  UNL1        0.0201
      3 C          63.5330   89.9352   16.0222 C.3     1  UNL1        0.0108
      4 C          64.5073   90.0881   14.8919 C.3     1  UNL1        0.0766
      5 C          65.0117   88.8754   14.1673 C.3     1  UNL1        0.0108
      6 C          64.5418   87.5099   14.5729 C.3     1  UNL1        0.0201
      7 C          64.9772   91.4536   14.4863 C.2     1  UNL1        0.2222
      8 O          65.1423   92.5277   15.5202 O.2     1  UNL1       -0.2751
      9 N          65.2820   91.7450   13.0467 N.am    1  UNL1       -0.3004
     10 H          65.1737   91.0399   12.3682 H       1  UNL1        0.1497
     11 C          65.7519   93.1105   12.6411 C.3     1  UNL1        0.1163
     12 C          66.6126   93.2767   11.4239 C.ar    1  UNL1        0.0013
     13 C          67.4683   92.1397   10.9496 C.ar    1  UNL1       -0.0027
     14 C          68.3290   92.3058    9.7323 C.ar    1  UNL1       -0.0003
     15 C          68.3339   93.6089    8.9894 C.ar    1  UNL1       -0.0001
     16 C          67.4781   94.7459    9.4638 C.ar    1  UNL1        0.0036
     17 C          66.6175   94.5798   10.6810 C.ar    1  UNL1        0.0691
     18 C          65.7618   95.7167   11.1554 C.3     1  UNL1        0.4183
     19 F          64.9061   96.8538   11.6298 F       1  UNL1       -0.1659
     20 F          64.9813   95.6632    9.8756 F       1  UNL1       -0.1659
     21 F          66.5423   95.7702   12.4352 F       1  UNL1       -0.1659
     22 N          63.0977   85.9914   16.1087 N.pl3   1  UNL1       -0.3045
     23 H          62.9402   85.7871   17.0588 H       1  UNL1        0.1496
     24 C          62.4421   82.4534   14.4346 C.ar    1  UNL1        0.2217
     25 N          62.6721   83.5076   15.4765 N.ar    1  UNL1       -0.1810
     26 C          62.8676   84.9372   15.0667 C.ar    1  UNL1        0.2216
     27 N          62.8331   85.3126   13.6149 N.ar    1  UNL1       -0.1808
     28 C          62.6031   84.2584   12.5729 C.ar    1  UNL1        0.2250
     29 N          62.4076   82.8288   12.9828 N.ar    1  UNL1       -0.1808
     30 C          62.1883   79.9462   13.8027 C.3     1  UNL1        0.1108
     31 N          62.2466   81.0238   14.8445 N.pl3   1  UNL1       -0.3012
     32 H          62.1566   80.7928   15.7972 H       1  UNL1        0.1497
     33 N          62.5686   84.6338   11.1210 N.pl3   1  UNL1       -0.2749
     34 C          63.5489   84.0219   10.1646 C.3     1  UNL1        0.1151
     35 C          61.5538   85.6211   10.6255 C.3     1  UNL1        0.1110
     36 C          61.9803   87.0079   10.2449 C.3     1  UNL1        0.0939
     37 N          61.4625   88.1887   11.0115 N.3     1  UNL1       -0.2688
     38 C          62.4221   89.1818   11.5974 C.3     1  UNL1        0.0897
     39 C          59.9854   88.3765   11.1923 C.3     1  UNL1        0.0897
@<TRIPOS>BOND
     1    30    31    1
     2    31    24    1
     3    24    25   ar
     4    25    26   ar
     5    26    22    1
     6    22     1    1
     7     1     2    1
     8     2     3    1
     9     3     4    1
    10     4     7    1
    11     7     8    2
    12     7     9   am
    13     9    11    1
    14    11    12    1
    15    12    13   ar
    16    13    14   ar
    17    14    15   ar
    18    15    16   ar
    19    16    17   ar
    20    17    18    1
    21    18    19    1
    22    18    20    1
    23    18    21    1
    24     4     5    1
    25     5     6    1
    26    26    27   ar
    27    27    28   ar
    28    28    33    1
    29    33    34    1
    30    33    35    1
    31    35    36    1
    32    36    37    1
    33    37    38    1
    34    37    39    1
    35    28    29   ar
    36    29    24   ar
    37     6     1    1
    38    17    12   ar
    39    31    32    1
    40    22    23    1
    41     9    10    1
@<TRIPOS>MOLECULE
*****
 39 41 0 0 0
SMALL
GASTEIGER

@<TRIPOS>ATOM
      1 C          63.7110   84.8802   15.7474 C.3     1  UNL1        0.0718
      2 C          64.4358   85.5113   14.5956 C.3     1  UNL1        0.0201
      3 C          64.4961   87.0053   14.4755 C.3     1  UNL1        0.0108
      4 C          63.8316   87.8681   15.5071 C.3     1  UNL1        0.0766
      5 C          63.1069   87.2369   16.6588 C.3     1  UNL1        0.0108
      6 C          63.0466   85.7429   16.7789 C.3     1  UNL1        0.0201
      7 C          63.8919   89.3621   15.3870 C.2     1  UNL1        0.2222
      8 O          63.1324   90.2233   16.3520 O.2     1  UNL1       -0.2751
      9 N          64.7118   89.9947   14.3018 N.am    1  UNL1       -0.3004
     10 H          65.2103   89.4294   13.6684 H       1  UNL1        0.1497
     11 C          64.7721   91.4887   14.1816 C.3     1  UNL1        0.1163
     12 C          65.2127   92.1205   12.8945 C.ar    1  UNL1        0.0013
     13 C          64.3963   91.9348   11.6500 C.ar    1  UNL1       -0.0027
     14 C          64.8368   92.5666   10.3627 C.ar    1  UNL1       -0.0003
     15 C          66.0938   93.3840   10.3202 C.ar    1  UNL1       -0.0001
     16 C          66.9102   93.5696   11.5648 C.ar    1  UNL1        0.0036
     17 C          66.4696   92.9379   12.8520 C.ar    1  UNL1        0.0691
     18 C          67.2860   93.1235   14.0965 C.3     1  UNL1        0.4183
     19 F          68.1025   93.3092   15.3411 F       1  UNL1       -0.1659
     20 F          66.5140   94.3689   14.4172 F       1  UNL1       -0.1659
     21 F          68.0581   91.8781   13.7759 F       1  UNL1       -0.1659
     22 N          63.6507   83.3862   15.8675 N.pl3   1  UNL1       -0.3045
     23 H          64.0123   82.9417   16.6681 H       1  UNL1        0.1496
     24 C          61.2724   80.8434   13.9628 C.ar    1  UNL1        0.2217
     25 N          61.8836   81.6602   15.0625 N.ar    1  UNL1       -0.1810
     26 C          63.0396   82.5694   14.7677 C.ar    1  UNL1        0.2216
     27 N          63.5845   82.6618   13.3733 N.ar    1  UNL1       -0.1808
     28 C          62.9734   81.8451   12.2736 C.ar    1  UNL1        0.2250
     29 N          61.8173   80.9359   12.5684 N.ar    1  UNL1       -0.1808
     30 C          58.7164   80.4726   14.2444 C.3     1  UNL1        0.1108
     31 N          60.1164   79.9342   14.2575 N.pl3   1  UNL1       -0.3012
     32 H          60.2765   78.9841   14.4596 H       1  UNL1        0.1497
     33 N          63.5183   81.9375   10.8791 N.pl3   1  UNL1       -0.2749
     34 C          63.3756   80.7769    9.9397 C.3     1  UNL1        0.1151
     35 C          64.2059   83.1905   10.4241 C.3     1  UNL1        0.1110
     36 C          63.5347   84.0980    9.4362 C.3     1  UNL1        0.0939
     37 N          62.6896   85.2390    9.9197 N.3     1  UNL1       -0.2688
     38 C          62.3902   85.3834   11.3824 C.3     1  UNL1        0.0897
     39 C          62.1438   86.2356    8.9405 C.3     1  UNL1        0.0897
@<TRIPOS>BOND
     1    30    31    1
     2    31    24    1
     3    24    25   ar
     4    25    26   ar
     5    26    22    1
     6    22     1    1
     7     1     2    1
     8     2     3    1
     9     3     4    1
    10     4     7    1
    11     7     8    2
    12     7     9   am
    13     9    11    1
    14    11    12    1
    15    12    13   ar
    16    13    14   ar
    17    14    15   ar
    18    15    16   ar
    19    16    17   ar
    20    17    18    1
    21    18    19    1
    22    18    20    1
    23    18    21    1
    24     4     5    1
    25     5     6    1
    26    26    27   ar
    27    27    28   ar
    28    28    33    1
    29    33    34    1
    30    33    35    1
    31    35    36    1
    32    36    37    1
    33    37    38    1
    34    37    39    1
    35    28    29   ar
    36    29    24   ar
    37     6     1    1
    38    17    12   ar
    39    31    32    1
    40    22    23    1
    41     9    10    1
@<TRIPOS>MOLECULE
*****
 39 41 0 0 0
SMALL
GASTEIGER

@<TRIPOS>ATOM
      1 C          63.8802   88.3435   14.0344 C.3     1  UNL1        0.0718
      2 C          63.4893   89.1315   12.8194 C.3     1  UNL1        0.0201
      3 C          64.0449   90.5087   12.6079 C.3     1  UNL1        0.0108
      4 C          64.9914   91.0978   13.6115 C.3     1  UNL1        0.0766
      5 C          65.3822   90.3098   14.8265 C.3     1  UNL1        0.0108
      6 C          64.8266   88.9327   15.0379 C.3     1  UNL1        0.0201
      7 C          65.5470   92.4750   13.4000 C.2     1  UNL1        0.2222
      8 O          65.9926   93.2927   14.5759 O.2     1  UNL1       -0.2751
      9 N          65.6569   93.0345   12.0125 N.am    1  UNL1       -0.3004
     10 H          65.3645   92.4978   11.2407 H       1  UNL1        0.1497
     11 C          66.2126   94.4116   11.8011 C.3     1  UNL1        0.1163
     12 C          66.2758   94.9907   10.4189 C.ar    1  UNL1        0.0013
     13 C          65.5428   96.2609   10.1036 C.ar    1  UNL1       -0.0027
     14 C          65.6060   96.8400    8.7213 C.ar    1  UNL1       -0.0003
     15 C          66.4024   96.1490    7.6544 C.ar    1  UNL1       -0.0001
     16 C          67.1354   94.8789    7.9697 C.ar    1  UNL1        0.0036
     17 C          67.0721   94.2998    9.3519 C.ar    1  UNL1        0.0691
     18 C          67.8052   93.0296    9.6671 C.3     1  UNL1        0.4183
     19 F          68.5383   91.7595    9.9824 F       1  UNL1       -0.1659
     20 F          66.5007   92.2917    9.7271 F       1  UNL1       -0.1659
     21 F          69.1097   93.7676    9.6071 F       1  UNL1       -0.1659
     22 N          63.3246   86.9663   14.2459 N.pl3   1  UNL1       -0.3045
     23 H          62.9605   86.7120   15.1245 H       1  UNL1        0.1496
     24 C          63.9682   83.6450   12.1712 C.ar    1  UNL1        0.2217
     25 N          63.9691   84.6346   13.2984 N.ar    1  UNL1       -0.1810
     26 C          63.3237   85.9767   13.1186 C.ar    1  UNL1        0.2216
     27 N          62.6774   86.3291   11.8117 N.ar    1  UNL1       -0.1808
     28 C          62.6766   85.3395   10.6845 C.ar    1  UNL1        0.2250
     29 N          63.3220   83.9974   10.8643 N.ar    1  UNL1       -0.1808
     30 C          63.9277   81.2433   13.1611 C.3     1  UNL1        0.1108
     31 N          64.6137   82.3029   12.3509 N.pl3   1  UNL1       -0.3012
     32 H          65.4875   82.1176   11.9370 H       1  UNL1        0.1497
     33 N          62.0303   85.6919    9.3775 N.pl3   1  UNL1       -0.2749
     34 C          62.7136   85.3502    8.0867 C.3     1  UNL1        0.1151
     35 C          60.7006   86.3861    9.3614 C.3     1  UNL1        0.1110
     36 C          60.2293   87.0750    8.1152 C.3     1  UNL1        0.0939
     37 N          59.8903   88.5358    8.1483 N.3     1  UNL1       -0.2688
     38 C          59.2087   89.1743    6.9744 C.3     1  UNL1        0.0897
     39 C          60.2328   89.3581    9.3551 C.3     1  UNL1        0.0897
@<TRIPOS>BOND
     1    30    31    1
     2    31    24    1
     3    24    25   ar
     4    25    26   ar
     5    26    22    1
     6    22     1    1
     7     1     2    1
     8     2     3    1
     9     3     4    1
    10     4     7    1
    11     7     8    2
    12     7     9   am
    13     9    11    1
    14    11    12    1
    15    12    13   ar
    16    13    14   ar
    17    14    15   ar
    18    15    16   ar
    19    16    17   ar
    20    17    18    1
    21    18    19    1
    22    18    20    1
    23    18    21    1
    24     4     5    1
    25     5     6    1
    26    26    27   ar
    27    27    28   ar
    28    28    33    1
    29    33    34    1
    30    33    35    1
    31    35    36    1
    32    36    37    1
    33    37    38    1
    34    37    39    1
    35    28    29   ar
    36    29    24   ar
    37     6     1    1
    38    17    12   ar
    39    31    32    1
    40    22    23    1
    41     9    10    1
@<TRIPOS>MOLECULE
*****
 39 41 0 0 0
SMALL
GASTEIGER

@<TRIPOS>ATOM
      1 C          59.0361   89.9122    6.1133 C.3     1  UNL1        0.0718
      2 C          57.8525   90.6863    5.6133 C.3     1  UNL1        0.0201
      3 C          58.0422   91.7731    4.5970 C.3     1  UNL1        0.0108
      4 C          59.4155   92.0858    4.0807 C.3     1  UNL1        0.0766
      5 C          60.5989   91.3117    4.5808 C.3     1  UNL1        0.0108
      6 C          60.4092   90.2249    5.5971 C.3     1  UNL1        0.0201
      7 C          59.6052   93.1727    3.0644 C.2     1  UNL1        0.2222
      8 O          60.0324   94.5423    3.5019 O.2     1  UNL1       -0.2751
      9 N          59.3676   92.8897    1.6106 N.am    1  UNL1       -0.3004
     10 H          59.0871   91.9908    1.3234 H       1  UNL1        0.1497
     11 C          59.5573   93.9766    0.5943 C.3     1  UNL1        0.1163
     12 C          60.5143   93.7803   -0.5439 C.ar    1  UNL1        0.0013
     13 C          60.0162   93.8217   -1.9582 C.ar    1  UNL1       -0.0027
     14 C          60.9732   93.6255   -3.0965 C.ar    1  UNL1       -0.0003
     15 C          62.4283   93.3878   -2.8204 C.ar    1  UNL1       -0.0001
     16 C          62.9264   93.3464   -1.4061 C.ar    1  UNL1        0.0036
     17 C          61.9694   93.5426   -0.2679 C.ar    1  UNL1        0.0691
     18 C          62.4675   93.5012    1.1464 C.3     1  UNL1        0.4183
     19 F          62.9656   93.4598    2.5607 F       1  UNL1       -0.1659
     20 F          62.2859   92.0124    1.1667 F       1  UNL1       -0.1659
     21 F          62.6490   94.9900    1.1261 F       1  UNL1       -0.1659
     22 N          58.8464   88.8254    7.1296 N.pl3   1  UNL1       -0.3045
     23 H          58.0510   88.2466    7.0888 H       1  UNL1        0.1496
     24 C          61.1872   89.5191   10.2584 C.ar    1  UNL1        0.2217
     25 N          60.1651   89.7240    9.1799 N.ar    1  UNL1       -0.1810
     26 C          59.8686   88.6204    8.2082 C.ar    1  UNL1        0.2216
     27 N          60.5941   87.3120    8.3150 N.ar    1  UNL1       -0.1808
     28 C          61.6162   87.1070    9.3935 C.ar    1  UNL1        0.2250
     29 N          61.9128   88.2106   10.3652 N.ar    1  UNL1       -0.1808
     30 C          62.8762   90.8033   11.7577 C.3     1  UNL1        0.1108
     31 N          61.4838   90.6226   11.2301 N.pl3   1  UNL1       -0.3012
     32 H          60.7645   91.2283   11.5216 H       1  UNL1        0.1497
     33 N          62.3418   85.7985    9.5003 N.pl3   1  UNL1       -0.2749
     34 C          62.9823   85.1947    8.2858 C.3     1  UNL1        0.1151
     35 C          62.4269   85.0939   10.8218 C.3     1  UNL1        0.1110
     36 C          63.3090   83.8903   10.9745 C.3     1  UNL1        0.0939
     37 N          63.3529   83.1535   12.2803 N.3     1  UNL1       -0.2688
     38 C          64.1258   83.7189   13.4349 C.3     1  UNL1        0.0897
     39 C          62.6240   81.8513   12.4316 C.3     1  UNL1        0.0897
@<TRIPOS>BOND
     1    30    31    1
     2    31    24    1
     3    24    25   ar
     4    25    26   ar
     5    26    22    1
     6    22     1    1
     7     1     2    1
     8     2     3    1
     9     3     4    1
    10     4     7    1
    11     7     8    2
    12     7     9   am
    13     9    11    1
    14    11    12    1
    15    12    13   ar
    16    13    14   ar
    17    14    15   ar
    18    15    16   ar
    19    16    17   ar
    20    17    18    1
    21    18    19    1
    22    18    20    1
    23    18    21    1
    24     4     5    1
    25     5     6    1
    26    26    27   ar
    27    27    28   ar
    28    28    33    1
    29    33    34    1
    30    33    35    1
    31    35    36    1
    32    36    37    1
    33    37    38    1
    34    37    39    1
    35    28    29   ar
    36    29    24   ar
    37     6     1    1
    38    17    12   ar
    39    31    32    1
    40    22    23    1
    41     9    10    1
@<TRIPOS>MOLECULE
*****
 39 41 0 0 0
SMALL
GASTEIGER

@<TRIPOS>ATOM
      1 C          59.9677   87.6589    9.1771 C.3     1  UNL1        0.0718
      2 C          60.3856   89.0954    9.2862 C.3     1  UNL1        0.0201
      3 C          60.1644   90.0304    8.1343 C.3     1  UNL1        0.0108
      4 C          59.5253   89.5288    6.8732 C.3     1  UNL1        0.0766
      5 C          59.1074   88.0923    6.7642 C.3     1  UNL1        0.0108
      6 C          59.3286   87.1574    7.9161 C.3     1  UNL1        0.0201
      7 C          59.3042   90.4637    5.7213 C.2     1  UNL1        0.2222
      8 O          57.9092   90.8377    5.3161 O.2     1  UNL1       -0.2751
      9 N          60.4780   91.0247    4.9746 N.am    1  UNL1       -0.3004
     10 H          61.3936   90.7793    5.2406 H       1  UNL1        0.1497
     11 C          60.2568   91.9597    3.8227 C.3     1  UNL1        0.1163
     12 C          61.3844   92.2742    2.8849 C.ar    1  UNL1        0.0013
     13 C          62.7986   91.9753    3.2855 C.ar    1  UNL1       -0.0027
     14 C          63.9263   92.2898    2.3476 C.ar    1  UNL1       -0.0003
     15 C          63.6396   92.9031    1.0091 C.ar    1  UNL1       -0.0001
     16 C          62.2253   93.2020    0.6085 C.ar    1  UNL1        0.0036
     17 C          61.0977   92.8875    1.5463 C.ar    1  UNL1        0.0691
     18 C          59.6835   93.1864    1.1457 C.3     1  UNL1        0.4183
     19 F          58.2692   93.4853    0.7450 F       1  UNL1       -0.1659
     20 F          59.7542   94.4962    1.8733 F       1  UNL1       -0.1659
     21 F          59.6128   91.8766    0.4181 F       1  UNL1       -0.1659
     22 N          60.1888   86.7239   10.3290 N.pl3   1  UNL1       -0.3045
     23 H          59.5725   85.9706   10.4769 H       1  UNL1        0.1496
     24 C          63.0309   88.5349   12.4250 C.ar    1  UNL1        0.2217
     25 N          61.8706   88.3220   11.4985 N.ar    1  UNL1       -0.1810
     26 C          61.3491   86.9367   11.2556 C.ar    1  UNL1        0.2216
     27 N          61.9878   85.7643   11.9392 N.ar    1  UNL1       -0.1808
     28 C          63.1481   85.9772   12.8658 C.ar    1  UNL1        0.2250
     29 N          63.6696   87.3625   13.1087 N.ar    1  UNL1       -0.1808
     30 C          63.8331   90.3812   14.0674 C.3     1  UNL1        0.1108
     31 N          63.5524   89.9202   12.6679 N.pl3   1  UNL1       -0.3012
     32 H          63.7104   90.5268   11.9088 H       1  UNL1        0.1497
     33 N          63.7869   84.8047   13.5495 N.pl3   1  UNL1       -0.2749
     34 C          64.8227   85.0285   14.6110 C.3     1  UNL1        0.1151
     35 C          63.3898   83.4085   13.1716 C.3     1  UNL1        0.1110
     36 C          62.4956   82.6124   14.0753 C.3     1  UNL1        0.0939
     37 N          61.9558   81.2890   13.6203 N.3     1  UNL1       -0.2688
     38 C          60.6260   80.8089   14.1216 C.3     1  UNL1        0.0897
     39 C          62.7458   80.4455   12.6640 C.3     1  UNL1        0.0897
@<TRIPOS>BOND
     1    30    31    1
     2    31    24    1
     3    24    25   ar
     4    25    26   ar
     5    26    22    1
     6    22     1    1
     7     1     2    1
     8     2     3    1
     9     3     4    1
    10     4     7    1
    11     7     8    2
    12     7     9   am
    13     9    11    1
    14    11    12    1
    15    12    13   ar
    16    13    14   ar
    17    14    15   ar
    18    15    16   ar
    19    16    17   ar
    20    17    18    1
    21    18    19    1
    22    18    20    1
    23    18    21    1
    24     4     5    1
    25     5     6    1
    26    26    27   ar
    27    27    28   ar
    28    28    33    1
    29    33    34    1
    30    33    35    1
    31    35    36    1
    32    36    37    1
    33    37    38    1
    34    37    39    1
    35    28    29   ar
    36    29    24   ar
    37     6     1    1
    38    17    12   ar
    39    31    32    1
    40    22    23    1
    41     9    10    1
@<TRIPOS>MOLECULE
*****
 39 41 0 0 0
SMALL
GASTEIGER

@<TRIPOS>ATOM
      1 C          59.0188   89.9487    6.1560 C.3     1  UNL1        0.0718
      2 C          57.8285   90.6963    5.6320 C.3     1  UNL1        0.0201
      3 C          58.0065   91.7394    4.5689 C.3     1  UNL1        0.0108
      4 C          59.3747   92.0349    4.0297 C.3     1  UNL1        0.0766
      5 C          60.5649   91.2873    4.5536 C.3     1  UNL1        0.0108
      6 C          60.3869   90.2442    5.6167 C.3     1  UNL1        0.0201
      7 C          59.5527   93.0780    2.9665 C.2     1  UNL1        0.2222
      8 O          60.0182   94.4549    3.3372 O.2     1  UNL1       -0.2751
      9 N          59.2651   92.7441    1.5326 N.am    1  UNL1       -0.3004
     10 H          58.9596   91.8404    1.2894 H       1  UNL1        0.1497
     11 C          59.4431   93.7872    0.4695 C.3     1  UNL1        0.1163
     12 C          60.6216   93.7213   -0.4561 C.ar    1  UNL1        0.0013
     13 C          62.0123   93.6659    0.1031 C.ar    1  UNL1       -0.0027
     14 C          63.1908   93.5999   -0.8225 C.ar    1  UNL1       -0.0003
     15 C          62.9786   93.5893   -2.3074 C.ar    1  UNL1       -0.0001
     16 C          61.5878   93.6447   -2.8666 C.ar    1  UNL1        0.0036
     17 C          60.4093   93.7107   -1.9410 C.ar    1  UNL1        0.0691
     18 C          59.0186   93.7660   -2.5003 C.3     1  UNL1        0.4183
     19 F          57.6278   93.8214   -3.0595 F       1  UNL1       -0.1659
     20 F          58.9208   92.2723   -2.4048 F       1  UNL1       -0.1659
     21 F          59.1165   95.2597   -2.5957 F       1  UNL1       -0.1659
     22 N          58.8408   88.9056    7.2191 N.pl3   1  UNL1       -0.3045
     23 H          58.0271   88.3516    7.2339 H       1  UNL1        0.1496
     24 C          61.3307   89.6324   10.2228 C.ar    1  UNL1        0.2217
     25 N          60.2689   89.8313    9.1822 N.ar    1  UNL1       -0.1810
     26 C          59.9026   88.7066    8.2598 C.ar    1  UNL1        0.2216
     27 N          60.5982   87.3829    8.3780 N.ar    1  UNL1       -0.1808
     28 C          61.6600   87.1840    9.4186 C.ar    1  UNL1        0.2250
     29 N          62.0262   88.3087   10.3411 N.ar    1  UNL1       -0.1808
     30 C          62.7919   90.5736   12.1539 C.3     1  UNL1        0.1108
     31 N          61.6969   90.7571   11.1452 N.pl3   1  UNL1       -0.3012
     32 H          61.2187   91.6158   11.0886 H       1  UNL1        0.1497
     33 N          62.3556   85.8602    9.5369 N.pl3   1  UNL1       -0.2749
     34 C          62.9678   85.2237    8.3245 C.3     1  UNL1        0.1151
     35 C          62.4389   85.1730   10.8676 C.3     1  UNL1        0.1110
     36 C          63.2182   83.8989   11.0063 C.3     1  UNL1        0.0939
     37 N          63.7840   83.5070   12.3391 N.3     1  UNL1       -0.2688
     38 C          63.7939   84.4936   13.4690 C.3     1  UNL1        0.0897
     39 C          64.3399   82.1287   12.5420 C.3     1  UNL1        0.0897
@<TRIPOS>BOND
     1    30    31    1
     2    31    24    1
     3    24    25   ar
     4    25    26   ar
     5    26    22    1
     6    22     1    1
     7     1     2    1
     8     2     3    1
     9     3     4    1
    10     4     7    1
    11     7     8    2
    12     7     9   am
    13     9    11    1
    14    11    12    1
    15    12    13   ar
    16    13    14   ar
    17    14    15   ar
    18    15    16   ar
    19    16    17   ar
    20    17    18    1
    21    18    19    1
    22    18    20    1
    23    18    21    1
    24     4     5    1
    25     5     6    1
    26    26    27   ar
    27    27    28   ar
    28    28    33    1
    29    33    34    1
    30    33    35    1
    31    35    36    1
    32    36    37    1
    33    37    38    1
    34    37    39    1
    35    28    29   ar
    36    29    24   ar
    37     6     1    1
    38    17    12   ar
    39    31    32    1
    40    22    23    1
    41     9    10    1
@<TRIPOS>MOLECULE
*****
 39 41 0 0 0
SMALL
GASTEIGER

@<TRIPOS>ATOM
      1 C          60.0074   87.6898    9.1816 C.3     1  UNL1        0.0718
      2 C          59.3708   87.1785    7.9232 C.3     1  UNL1        0.0201
      3 C          59.1403   88.1076    6.7683 C.3     1  UNL1        0.0108
      4 C          59.5463   89.5479    6.8718 C.3     1  UNL1        0.0766
      5 C          60.1829   90.0591    8.1301 C.3     1  UNL1        0.0108
      6 C          60.4134   89.1301    9.2850 C.3     1  UNL1        0.0201
      7 C          59.3158   90.4769    5.7169 C.2     1  UNL1        0.2222
      8 O          57.9174   90.8414    5.3152 O.2     1  UNL1       -0.2751
      9 N          60.4838   91.0415    4.9638 N.am    1  UNL1       -0.3004
     10 H          61.4017   90.8023    5.2276 H       1  UNL1        0.1497
     11 C          60.2533   91.9706    3.8090 C.3     1  UNL1        0.1163
     12 C          61.3800   92.3007    2.8755 C.ar    1  UNL1        0.0013
     13 C          62.7967   92.0211    3.2815 C.ar    1  UNL1       -0.0027
     14 C          63.9235   92.3513    2.3480 C.ar    1  UNL1       -0.0003
     15 C          63.6336   92.9611    1.0086 C.ar    1  UNL1       -0.0001
     16 C          62.2169   93.2407    0.6026 C.ar    1  UNL1        0.0036
     17 C          61.0901   92.9105    1.5361 C.ar    1  UNL1        0.0691
     18 C          59.6735   93.1902    1.1301 C.3     1  UNL1        0.4183
     19 F          58.2568   93.4698    0.7240 F       1  UNL1       -0.1659
     20 F          59.7328   94.5132    1.8344 F       1  UNL1       -0.1659
     21 F          59.6142   91.8671    0.4258 F       1  UNL1       -0.1659
     22 N          60.2379   86.7608   10.3364 N.pl3   1  UNL1       -0.3045
     23 H          59.6339   85.9971   10.4820 H       1  UNL1        0.1496
     24 C          63.1772   86.0725   12.9127 C.ar    1  UNL1        0.2217
     25 N          62.0263   85.8381   11.9797 N.ar    1  UNL1       -0.1810
     26 C          61.3888   86.9953   11.2695 C.ar    1  UNL1        0.2216
     27 N          61.9022   88.3870   11.4923 N.ar    1  UNL1       -0.1808
     28 C          63.0530   88.6214   12.4253 C.ar    1  UNL1        0.2250
     29 N          63.6905   87.4642   13.1355 N.ar    1  UNL1       -0.1808
     30 C          64.0161   84.9658   15.1085 C.3     1  UNL1        0.1108
     31 N          63.8147   84.9153   13.6230 N.pl3   1  UNL1       -0.3012
     32 H          64.1009   84.1226   13.1141 H       1  UNL1        0.1497
     33 N          63.5664   90.0132   12.6481 N.pl3   1  UNL1       -0.2749
     34 C          63.4716   91.0321   11.5514 C.3     1  UNL1        0.1151
     35 C          64.1746   90.3859   13.9676 C.3     1  UNL1        0.1110
     36 C          65.5022   91.0825   14.0115 C.3     1  UNL1        0.0939
     37 N          65.6958   92.2723   14.9042 N.3     1  UNL1       -0.2688
     38 C          66.4727   93.4586   14.4149 C.3     1  UNL1        0.0897
     39 C          65.1125   92.2760   16.2861 C.3     1  UNL1        0.0897
@<TRIPOS>BOND
     1    30    31    1
     2    31    24    1
     3    24    25   ar
     4    25    26   ar
     5    26    22    1
     6    22     1    1
     7     1     2    1
     8     2     3    1
     9     3     4    1
    10     4     7    1
    11     7     8    2
    12     7     9   am
    13     9    11    1
    14    11    12    1
    15    12    13   ar
    16    13    14   ar
    17    14    15   ar
    18    15    16   ar
    19    16    17   ar
    20    17    18    1
    21    18    19    1
    22    18    20    1
    23    18    21    1
    24     4     5    1
    25     5     6    1
    26    26    27   ar
    27    27    28   ar
    28    28    33    1
    29    33    34    1
    30    33    35    1
    31    35    36    1
    32    36    37    1
    33    37    38    1
    34    37    39    1
    35    28    29   ar
    36    29    24   ar
    37     6     1    1
    38    17    12   ar
    39    31    32    1
    40    22    23    1
    41     9    10    1
