@<TRIPOS>MOLECULE
*****
 39 43 0 0 0
SMALL
GASTEIGER

@<TRIPOS>ATOM
      1 C          63.0912   86.1113   13.0797 C.3     1  UNL1        0.1533
      2 C          59.6660   88.5044    8.1660 C.2     1  UNL1        0.1525
      3 C          60.3122   88.8656    9.4707 C.2     1  UNL1        0.0845
      4 C          61.0388   87.8193   10.2627 C.2     1  UNL1        0.2268
      5 N          61.7677   87.8780   11.5724 N.2     1  UNL1       -0.0382
      6 C          62.2986   86.5069   11.8692 C.2     1  UNL1        0.3519
      7 N          61.8978   85.6008   10.7430 N.2     1  UNL1       -0.0548
      8 C          61.1192   86.4119    9.7501 C.3     1  UNL1        0.3022
      9 C          60.4730   86.0508    8.4455 C.2     1  UNL1        0.0492
     10 C          59.7464   87.0970    7.6535 C.2     1  UNL1        0.0920
     11 CL         59.1002   86.7358    6.3488 Cl      1  UNL1       -0.0793
     12 C          59.5318   90.0716    6.0981 C.3     1  UNL1        0.2525
     13 O          58.9394   89.5507    7.3739 O.2     1  UNL1       -0.4705
     14 C          63.2203   84.6639   13.4515 C.ar    1  UNL1       -0.0068
     15 C          62.4099   84.1050   14.5832 C.ar    1  UNL1       -0.0035
     16 C          62.5390   82.6576   14.9551 C.ar    1  UNL1        0.0020
     17 C          63.4786   81.7689   14.1951 C.ar    1  UNL1        0.0296
     18 C          64.2890   82.3278   13.0633 C.ar    1  UNL1        0.1398
     19 F          65.2286   81.4392   12.3034 F       1  UNL1       -0.2042
     20 C          64.1599   83.7753   12.6915 C.ar    1  UNL1        0.0260
     21 C          63.7547   87.1631   13.9184 C.3     1  UNL1        0.1065
     22 N          64.3417   88.3809   13.2683 N.am    1  UNL1       -0.2999
     23 C          63.7751   89.7373   13.5670 C.2     1  UNL1        0.2475
     24 O          62.6215   89.8760   14.5157 O.2     1  UNL1       -0.2701
     25 H          65.0988   88.2899   12.6456 H       1  UNL1        0.1498
     26 C          64.3621   90.9550   12.9169 C.ar    1  UNL1        0.0745
     27 C          63.9638   91.3244   11.5187 C.ar    1  UNL1        0.0643
     28 CL         62.9786   90.4762   10.7706 Cl      1  UNL1       -0.0820
     29 C          64.5508   92.5421   10.8686 C.ar    1  UNL1        0.0308
     30 C          65.5362   93.3904   11.6168 C.ar    1  UNL1        0.0863
     31 C          65.9344   93.0210   13.0150 C.ar    1  UNL1        0.0308
     32 C          65.3473   91.8033   13.6650 C.ar    1  UNL1        0.0643
     33 CL         65.7456   91.4339   15.0632 Cl      1  UNL1       -0.0820
     34 N          66.1232   94.6081   10.9667 N.ar    1  UNL1       -0.2083
     35 C          66.3734   95.9289   11.6323 C.ar    1  UNL1        0.2013
     36 N          66.9679   96.8559   10.6139 N.ar    1  UNL1       -0.2073
     37 C          67.0851   96.1081    9.3189 C.ar    1  UNL1        0.1613
     38 C          67.6289   96.6537    8.0318 C.3     1  UNL1        0.0756
     39 N          66.5630   94.7189    9.5369 N.ar    1  UNL1       -0.1487
@<TRIPOS>BOND
     1    12    13    1
     2    13     2    1
     3     2     3    2
     4     3     4    1
     5     4     5    2
     6     5     6    1
     7     6     1    1
     8     1    21    1
     9    21    22    1
    10    22    23   am
    11    23    24    2
    12    23    26    1
    13    26    27   ar
    14    27    28    1
    15    27    29   ar
    16    29    30   ar
    17    30    34    1
    18    34    35   ar
    19    35    36   ar
    20    36    37   ar
    21    37    38    1
    22    37    39   ar
    23    30    31   ar
    24    31    32   ar
    25    32    33    1
    26     1    14    1
    27    14    15   ar
    28    15    16   ar
    29    16    17   ar
    30    17    18   ar
    31    18    19    1
    32    18    20   ar
    33     6     7    2
    34     7     8    1
    35     8     9    1
    36     9    10    2
    37    10    11    1
    38    10     2    1
    39     8     4    1
    40    32    26   ar
    41    20    14   ar
    42    39    34   ar
    43    22    25    1
@<TRIPOS>MOLECULE
*****
 39 43 0 0 0
SMALL
GASTEIGER

@<TRIPOS>ATOM
      1 C          60.6793   88.2079   10.6824 C.3     1  UNL1        0.1533
      2 C          63.5686   82.8181   12.7329 C.2     1  UNL1        0.1525
      3 C          62.5692   83.3470   11.7472 C.2     1  UNL1        0.0845
      4 C          62.2574   84.8138   11.7091 C.2     1  UNL1        0.2268
      5 N          61.3250   85.6198   10.8542 N.2     1  UNL1       -0.0382
      6 C          61.4363   87.0557   11.2734 C.2     1  UNL1        0.3519
      7 N          62.4375   87.1371   12.3874 N.2     1  UNL1       -0.0548
      8 C          62.9450   85.7515   12.6567 C.3     1  UNL1        0.3022
      9 C          63.9443   85.2225   13.6423 C.2     1  UNL1        0.0492
     10 C          64.2561   83.7558   13.6804 C.2     1  UNL1        0.0920
     11 CL         65.2555   83.2269   14.6661 Cl      1  UNL1       -0.0793
     12 C          62.7674   80.3501   12.8647 C.3     1  UNL1        0.2525
     13 O          63.8804   81.3513   12.7709 O.2     1  UNL1       -0.4705
     14 C          60.1140   88.1023    9.2970 C.ar    1  UNL1       -0.0068
     15 C          59.5801   86.7906    8.8028 C.ar    1  UNL1       -0.0035
     16 C          59.0148   86.6850    7.4174 C.ar    1  UNL1        0.0020
     17 C          58.9833   87.8911    6.5262 C.ar    1  UNL1        0.0296
     18 C          59.5172   89.2029    7.0205 C.ar    1  UNL1        0.1398
     19 F          59.4858   90.4090    6.1293 F       1  UNL1       -0.2042
     20 C          60.0826   89.3085    8.4059 C.ar    1  UNL1        0.0260
     21 C          60.4876   89.4658   11.4767 C.3     1  UNL1        0.1065
     22 N          61.6183   90.0162   12.2945 N.am    1  UNL1       -0.2999
     23 C          62.9085   90.3961   11.6306 C.2     1  UNL1        0.2475
     24 O          63.0682   90.2257   10.1488 O.2     1  UNL1       -0.2701
     25 H          61.5135   90.1280   13.2670 H       1  UNL1        0.1498
     26 C          64.0391   90.9464   12.4484 C.ar    1  UNL1        0.0745
     27 C          64.3253   90.3819   13.8083 C.ar    1  UNL1        0.0643
     28 CL         63.4809   89.2671   14.3505 Cl      1  UNL1       -0.0820
     29 C          65.4559   90.9323   14.6262 C.ar    1  UNL1        0.0308
     30 C          66.3004   92.0472   14.0840 C.ar    1  UNL1        0.0863
     31 C          66.0143   92.6117   12.7241 C.ar    1  UNL1        0.0308
     32 C          64.8836   92.0613   11.9063 C.ar    1  UNL1        0.0643
     33 CL         64.5975   92.6258   10.5464 Cl      1  UNL1       -0.0820
     34 N          67.4310   92.5975   14.9019 N.ar    1  UNL1       -0.2083
     35 C          68.3302   91.8085   15.8067 C.ar    1  UNL1        0.2013
     36 N          69.3159   92.7568   16.4225 N.ar    1  UNL1       -0.2073
     37 C          69.0258   94.1319   15.8982 C.ar    1  UNL1        0.1613
     38 C          69.7700   95.3854   16.2517 C.3     1  UNL1        0.0756
     39 N          67.8609   94.0335   14.9584 N.ar    1  UNL1       -0.1487
@<TRIPOS>BOND
     1    12    13    1
     2    13     2    1
     3     2     3    2
     4     3     4    1
     5     4     5    2
     6     5     6    1
     7     6     1    1
     8     1    21    1
     9    21    22    1
    10    22    23   am
    11    23    24    2
    12    23    26    1
    13    26    27   ar
    14    27    28    1
    15    27    29   ar
    16    29    30   ar
    17    30    34    1
    18    34    35   ar
    19    35    36   ar
    20    36    37   ar
    21    37    38    1
    22    37    39   ar
    23    30    31   ar
    24    31    32   ar
    25    32    33    1
    26     1    14    1
    27    14    15   ar
    28    15    16   ar
    29    16    17   ar
    30    17    18   ar
    31    18    19    1
    32    18    20   ar
    33     6     7    2
    34     7     8    1
    35     8     9    1
    36     9    10    2
    37    10    11    1
    38    10     2    1
    39     8     4    1
    40    32    26   ar
    41    20    14   ar
    42    39    34   ar
    43    22    25    1
@<TRIPOS>MOLECULE
*****
 39 43 0 0 0
SMALL
GASTEIGER

@<TRIPOS>ATOM
      1 C          60.6719   88.2061   10.6908 C.3     1  UNL1        0.1533
      2 C          63.5853   82.8244   12.7283 C.2     1  UNL1        0.1525
      3 C          62.5905   83.3526   11.7376 C.2     1  UNL1        0.0845
      4 C          62.2676   84.8171   11.7073 C.2     1  UNL1        0.2268
      5 N          61.3364   85.6219   10.8499 N.2     1  UNL1       -0.0382
      6 C          61.4327   87.0556   11.2802 C.2     1  UNL1        0.3519
      7 N          62.4234   87.1368   12.4036 N.2     1  UNL1       -0.0548
      8 C          62.9394   85.7533   12.6675 C.3     1  UNL1        0.3022
      9 C          63.9341   85.2251   13.6582 C.2     1  UNL1        0.0492
     10 C          64.2571   83.7606   13.6885 C.2     1  UNL1        0.0920
     11 CL         65.2519   83.2324   14.6792 Cl      1  UNL1       -0.0793
     12 C          62.8309   80.3602   13.0589 C.3     1  UNL1        0.2525
     13 O          63.9083   81.3598   12.7587 O.2     1  UNL1       -0.4705
     14 C          60.1118   88.1026    9.3032 C.ar    1  UNL1       -0.0068
     15 C          59.5729   86.7934    8.8076 C.ar    1  UNL1       -0.0035
     16 C          59.0127   86.6899    7.4200 C.ar    1  UNL1        0.0020
     17 C          58.9914   87.8956    6.5278 C.ar    1  UNL1        0.0296
     18 C          59.5303   89.2048    7.0235 C.ar    1  UNL1        0.1398
     19 F          59.5090   90.4105    6.1314 F       1  UNL1       -0.2042
     20 C          60.0905   89.3084    8.4111 C.ar    1  UNL1        0.0260
     21 C          60.4713   89.4602   11.4889 C.3     1  UNL1        0.1065
     22 N          61.6000   90.0198   12.3031 N.am    1  UNL1       -0.2999
     23 C          62.9042   90.3583   11.6442 C.2     1  UNL1        0.2475
     24 O          63.0799   90.1372   10.1710 O.2     1  UNL1       -0.2701
     25 H          61.4847   90.1649   13.2700 H       1  UNL1        0.1498
     26 C          64.0329   90.9179   12.4585 C.ar    1  UNL1        0.0745
     27 C          64.8627   92.0436   11.9162 C.ar    1  UNL1        0.0643
     28 CL         64.5640   92.6098   10.5597 Cl      1  UNL1       -0.0820
     29 C          65.9914   92.6032   12.7305 C.ar    1  UNL1        0.0308
     30 C          66.2901   92.0370   14.0871 C.ar    1  UNL1        0.0863
     31 C          65.4603   90.9112   14.6294 C.ar    1  UNL1        0.0308
     32 C          64.3316   90.3517   13.8150 C.ar    1  UNL1        0.0643
     33 CL         63.5018   89.2260   14.3572 Cl      1  UNL1       -0.0820
     34 N          67.4188   92.5965   14.9014 N.ar    1  UNL1       -0.2083
     35 C          68.3261   91.8151   15.8048 C.ar    1  UNL1        0.2013
     36 N          69.3064   92.7714   16.4170 N.ar    1  UNL1       -0.2073
     37 C          69.0048   94.1437   15.8920 C.ar    1  UNL1        0.1613
     38 C          69.7406   95.4031   16.2422 C.3     1  UNL1        0.0756
     39 N          67.8382   94.0357   14.9553 N.ar    1  UNL1       -0.1487
@<TRIPOS>BOND
     1    12    13    1
     2    13     2    1
     3     2     3    2
     4     3     4    1
     5     4     5    2
     6     5     6    1
     7     6     1    1
     8     1    21    1
     9    21    22    1
    10    22    23   am
    11    23    24    2
    12    23    26    1
    13    26    27   ar
    14    27    28    1
    15    27    29   ar
    16    29    30   ar
    17    30    34    1
    18    34    35   ar
    19    35    36   ar
    20    36    37   ar
    21    37    38    1
    22    37    39   ar
    23    30    31   ar
    24    31    32   ar
    25    32    33    1
    26     1    14    1
    27    14    15   ar
    28    15    16   ar
    29    16    17   ar
    30    17    18   ar
    31    18    19    1
    32    18    20   ar
    33     6     7    2
    34     7     8    1
    35     8     9    1
    36     9    10    2
    37    10    11    1
    38    10     2    1
    39     8     4    1
    40    32    26   ar
    41    20    14   ar
    42    39    34   ar
    43    22    25    1
@<TRIPOS>MOLECULE
*****
 39 43 0 0 0
SMALL
GASTEIGER

@<TRIPOS>ATOM
      1 C          62.3267   86.3265   12.0097 C.3     1  UNL1        0.1533
      2 C          62.6842   79.8864   12.0059 C.2     1  UNL1        0.1525
      3 C          62.7440   81.0951   11.1196 C.2     1  UNL1        0.0845
      4 C          62.5838   82.4654   11.7084 C.2     1  UNL1        0.2268
      5 N          62.5967   83.8316   11.0892 N.2     1  UNL1       -0.0382
      6 C          62.3847   84.8375   12.1815 C.2     1  UNL1        0.3519
      7 N          62.2407   84.0930   13.4757 N.2     1  UNL1       -0.0548
      8 C          62.3638   82.6270   13.1833 C.3     1  UNL1        0.3022
      9 C          62.3040   81.4182   14.0695 C.2     1  UNL1        0.0492
     10 C          62.4642   80.0480   13.4808 C.2     1  UNL1        0.0920
     11 CL         62.4044   78.8392   14.3671 Cl      1  UNL1       -0.0793
     12 C          62.8649   78.3372    9.9280 C.3     1  UNL1        0.2525
     13 O          62.8444   78.5160   11.4172 O.2     1  UNL1       -0.4705
     14 C          61.4859   86.9237   10.9205 C.ar    1  UNL1       -0.0068
     15 C          60.7972   88.2380   11.1399 C.ar    1  UNL1       -0.0035
     16 C          59.9564   88.8352   10.0506 C.ar    1  UNL1        0.0020
     17 C          59.8043   88.1180    8.7420 C.ar    1  UNL1        0.0296
     18 C          60.4931   86.8036    8.5226 C.ar    1  UNL1        0.1398
     19 F          60.3411   86.0865    7.2140 F       1  UNL1       -0.2042
     20 C          61.3339   86.2065    9.6119 C.ar    1  UNL1        0.0260
     21 C          63.1095   87.2183   12.9272 C.3     1  UNL1        0.1065
     22 N          63.7972   88.4356   12.3836 N.am    1  UNL1       -0.2999
     23 C          63.4094   89.7985   12.8754 C.2     1  UNL1        0.2475
     24 O          62.3339   89.9444   13.9107 O.2     1  UNL1       -0.2701
     25 H          64.5031   88.3399   11.7040 H       1  UNL1        0.1498
     26 C          64.0972   91.0157   12.3317 C.ar    1  UNL1        0.0745
     27 C          63.7899   91.4935   10.9435 C.ar    1  UNL1        0.0643
     28 CL         62.7948   90.7543   10.0988 Cl      1  UNL1       -0.0820
     29 C          64.4776   92.7107   10.3998 C.ar    1  UNL1        0.0308
     30 C          65.4727   93.4500   11.2444 C.ar    1  UNL1        0.0863
     31 C          65.7800   92.9722   12.6327 C.ar    1  UNL1        0.0308
     32 C          65.0922   91.7550   13.1763 C.ar    1  UNL1        0.0643
     33 CL         65.3995   91.2771   14.5645 Cl      1  UNL1       -0.0820
     34 N          66.1604   94.6672   10.7008 N.ar    1  UNL1       -0.2083
     35 C          66.5299   95.8936   11.4814 C.ar    1  UNL1        0.2013
     36 N          67.1973   96.8560   10.5441 N.ar    1  UNL1       -0.2073
     37 C          67.2402   96.2243    9.1843 C.ar    1  UNL1        0.1613
     38 C          67.8218   96.8378    7.9452 C.3     1  UNL1        0.0756
     39 N          66.5994   94.8716    9.2811 N.ar    1  UNL1       -0.1487
@<TRIPOS>BOND
     1    12    13    1
     2    13     2    1
     3     2     3    2
     4     3     4    1
     5     4     5    2
     6     5     6    1
     7     6     1    1
     8     1    21    1
     9    21    22    1
    10    22    23   am
    11    23    24    2
    12    23    26    1
    13    26    27   ar
    14    27    28    1
    15    27    29   ar
    16    29    30   ar
    17    30    34    1
    18    34    35   ar
    19    35    36   ar
    20    36    37   ar
    21    37    38    1
    22    37    39   ar
    23    30    31   ar
    24    31    32   ar
    25    32    33    1
    26     1    14    1
    27    14    15   ar
    28    15    16   ar
    29    16    17   ar
    30    17    18   ar
    31    18    19    1
    32    18    20   ar
    33     6     7    2
    34     7     8    1
    35     8     9    1
    36     9    10    2
    37    10    11    1
    38    10     2    1
    39     8     4    1
    40    32    26   ar
    41    20    14   ar
    42    39    34   ar
    43    22    25    1
@<TRIPOS>MOLECULE
*****
 39 43 0 0 0
SMALL
GASTEIGER

@<TRIPOS>ATOM
      1 C          60.8660   87.9987   10.8022 C.3     1  UNL1        0.1533
      2 C          63.6186   82.6775   13.1921 C.2     1  UNL1        0.1525
      3 C          62.6014   83.1656   12.2036 C.2     1  UNL1        0.0845
      4 C          62.3475   84.6362   12.0530 C.2     1  UNL1        0.2268
      5 N          61.4137   85.4081   11.1686 N.2     1  UNL1       -0.0382
      6 C          61.5999   86.8677   11.4599 C.2     1  UNL1        0.3519
      7 N          62.6487   86.9979   12.5244 N.2     1  UNL1       -0.0548
      8 C          63.1107   85.6188   12.8909 C.3     1  UNL1        0.3022
      9 C          64.1279   85.1306   13.8794 C.2     1  UNL1        0.0492
     10 C          64.3818   83.6600   14.0300 C.2     1  UNL1        0.0920
     11 CL         65.3990   83.1719   15.0186 Cl      1  UNL1       -0.0793
     12 C          62.7912   80.2212   13.0117 C.3     1  UNL1        0.2525
     13 O          63.8725   81.2067   13.3427 O.2     1  UNL1       -0.4705
     14 C          60.3607   87.8489    9.3979 C.ar    1  UNL1       -0.0068
     15 C          59.8852   89.0525    8.6395 C.ar    1  UNL1       -0.0035
     16 C          59.3798   88.9027    7.2352 C.ar    1  UNL1        0.0020
     17 C          59.3500   87.5492    6.5892 C.ar    1  UNL1        0.0296
     18 C          59.8255   86.3456    7.3477 C.ar    1  UNL1        0.1398
     19 F          59.7956   84.9921    6.7017 F       1  UNL1       -0.2042
     20 C          60.3309   86.4954    8.7520 C.ar    1  UNL1        0.0260
     21 C          60.6375   89.2794   11.5489 C.3     1  UNL1        0.1065
     22 N          61.7456   89.8824   12.3605 N.am    1  UNL1       -0.2999
     23 C          63.0482   90.2355   11.7059 C.2     1  UNL1        0.2475
     24 O          63.2429   89.9855   10.2397 O.2     1  UNL1       -0.2701
     25 H          61.6179   90.0465   13.3228 H       1  UNL1        0.1498
     26 C          64.1562   90.8385   12.5175 C.ar    1  UNL1        0.0745
     27 C          64.5290   90.2384   13.8406 C.ar    1  UNL1        0.0643
     28 CL         63.7939   89.0351   14.3523 Cl      1  UNL1       -0.0820
     29 C          65.6370   90.8414   14.6522 C.ar    1  UNL1        0.0308
     30 C          66.3722   92.0447   14.1406 C.ar    1  UNL1        0.0863
     31 C          65.9994   92.6449   12.8175 C.ar    1  UNL1        0.0308
     32 C          64.8914   92.0418   12.0059 C.ar    1  UNL1        0.0643
     33 CL         64.5186   92.6419   10.6827 Cl      1  UNL1       -0.0820
     34 N          67.4802   92.6478   14.9522 N.ar    1  UNL1       -0.2083
     35 C          68.3886   91.9094   15.8901 C.ar    1  UNL1        0.2013
     36 N          69.3442   92.9003   16.4860 N.ar    1  UNL1       -0.2073
     37 C          69.0262   94.2511   15.9164 C.ar    1  UNL1        0.1613
     38 C          69.7358   95.5329   16.2382 C.3     1  UNL1        0.0756
     39 N          67.8742   94.0950   14.9685 N.ar    1  UNL1       -0.1487
@<TRIPOS>BOND
     1    12    13    1
     2    13     2    1
     3     2     3    2
     4     3     4    1
     5     4     5    2
     6     5     6    1
     7     6     1    1
     8     1    21    1
     9    21    22    1
    10    22    23   am
    11    23    24    2
    12    23    26    1
    13    26    27   ar
    14    27    28    1
    15    27    29   ar
    16    29    30   ar
    17    30    34    1
    18    34    35   ar
    19    35    36   ar
    20    36    37   ar
    21    37    38    1
    22    37    39   ar
    23    30    31   ar
    24    31    32   ar
    25    32    33    1
    26     1    14    1
    27    14    15   ar
    28    15    16   ar
    29    16    17   ar
    30    17    18   ar
    31    18    19    1
    32    18    20   ar
    33     6     7    2
    34     7     8    1
    35     8     9    1
    36     9    10    2
    37    10    11    1
    38    10     2    1
    39     8     4    1
    40    32    26   ar
    41    20    14   ar
    42    39    34   ar
    43    22    25    1
@<TRIPOS>MOLECULE
*****
 39 43 0 0 0
SMALL
GASTEIGER

@<TRIPOS>ATOM
      1 C          61.6815   86.7489   10.0168 C.3     1  UNL1        0.1533
      2 C          63.4288   82.0744   14.1032 C.2     1  UNL1        0.1525
      3 C          62.7674   82.3319   12.7817 C.2     1  UNL1        0.0845
      4 C          62.6166   83.7374   12.2798 C.2     1  UNL1        0.2268
      5 N          62.0129   84.2957   11.0253 N.2     1  UNL1       -0.0382
      6 C          62.1504   85.7887   11.0695 C.2     1  UNL1        0.3519
      7 N          62.8390   86.1531   12.3513 N.2     1  UNL1       -0.0548
      8 C          63.1272   84.8853   13.0993 C.3     1  UNL1        0.3022
      9 C          63.7886   84.6277   14.4207 C.2     1  UNL1        0.0492
     10 C          63.9394   83.2223   14.9227 C.2     1  UNL1        0.0920
     11 CL         64.6008   82.9648   16.2442 Cl      1  UNL1       -0.0793
     12 C          62.9056   79.5389   13.8849 C.3     1  UNL1        0.2525
     13 O          63.5796   80.6689   14.6052 O.2     1  UNL1       -0.4705
     14 C          61.2721   86.2401    8.6664 C.ar    1  UNL1       -0.0068
     15 C          59.8859   86.4998    8.1556 C.ar    1  UNL1       -0.0035
     16 C          59.4765   85.9909    6.8053 C.ar    1  UNL1        0.0020
     17 C          60.4534   85.2224    5.9656 C.ar    1  UNL1        0.0296
     18 C          61.8397   84.9628    6.4764 C.ar    1  UNL1        0.1398
     19 F          62.8166   84.1943    5.6367 F       1  UNL1       -0.2042
     20 C          62.2491   85.4716    7.8267 C.ar    1  UNL1        0.0260
     21 C          61.6219   88.2179   10.3144 C.3     1  UNL1        0.1065
     22 N          62.8212   88.9173   10.8824 N.am    1  UNL1       -0.2999
     23 C          62.7014   89.6930   12.1607 C.2     1  UNL1        0.2475
     24 O          61.3825   89.7692   12.8710 O.2     1  UNL1       -0.2701
     25 H          63.6869   88.8673   10.4163 H       1  UNL1        0.1498
     26 C          63.9007   90.3924   12.7286 C.ar    1  UNL1        0.0745
     27 C          64.5099   91.5510   11.9962 C.ar    1  UNL1        0.0643
     28 CL         63.9199   92.0103   10.6959 Cl      1  UNL1       -0.0820
     29 C          65.7092   92.2504   12.5642 C.ar    1  UNL1        0.0308
     30 C          66.2993   91.7912   13.8646 C.ar    1  UNL1        0.0863
     31 C          65.6901   90.6325   14.5970 C.ar    1  UNL1        0.0308
     32 C          64.4908   89.9332   14.0290 C.ar    1  UNL1        0.0643
     33 CL         63.8815   88.7745   14.7614 Cl      1  UNL1       -0.0820
     34 N          67.4986   92.4906   14.4326 N.ar    1  UNL1       -0.2083
     35 C          68.9323   92.1595   14.1414 C.ar    1  UNL1        0.2013
     36 N          69.7945   93.1081   14.9202 N.ar    1  UNL1       -0.2073
     37 C          68.8936   94.0255   15.6928 C.ar    1  UNL1        0.1613
     38 C          69.3344   95.1306   16.6064 C.3     1  UNL1        0.0756
     39 N          67.4746   93.6439   15.3914 N.ar    1  UNL1       -0.1487
@<TRIPOS>BOND
     1    12    13    1
     2    13     2    1
     3     2     3    2
     4     3     4    1
     5     4     5    2
     6     5     6    1
     7     6     1    1
     8     1    21    1
     9    21    22    1
    10    22    23   am
    11    23    24    2
    12    23    26    1
    13    26    27   ar
    14    27    28    1
    15    27    29   ar
    16    29    30   ar
    17    30    34    1
    18    34    35   ar
    19    35    36   ar
    20    36    37   ar
    21    37    38    1
    22    37    39   ar
    23    30    31   ar
    24    31    32   ar
    25    32    33    1
    26     1    14    1
    27    14    15   ar
    28    15    16   ar
    29    16    17   ar
    30    17    18   ar
    31    18    19    1
    32    18    20   ar
    33     6     7    2
    34     7     8    1
    35     8     9    1
    36     9    10    2
    37    10    11    1
    38    10     2    1
    39     8     4    1
    40    32    26   ar
    41    20    14   ar
    42    39    34   ar
    43    22    25    1
@<TRIPOS>MOLECULE
*****
 39 43 0 0 0
SMALL
GASTEIGER

@<TRIPOS>ATOM
      1 C          62.5164   85.6011   12.3617 C.3     1  UNL1        0.1533
      2 C          64.7656   91.5865   13.2094 C.2     1  UNL1        0.1525
      3 C          64.0396   90.7000   12.2413 C.2     1  UNL1        0.0845
      4 C          63.7624   89.2695   12.5971 C.2     1  UNL1        0.2268
      5 N          63.0730   88.1653   11.8518 N.2     1  UNL1       -0.0382
      6 C          63.0955   86.9389   12.7151 C.2     1  UNL1        0.3519
      7 N          63.7989   87.2850   13.9940 N.2     1  UNL1       -0.0548
      8 C          64.2111   88.7255   13.9210 C.3     1  UNL1        0.3022
      9 C          64.9370   89.6120   14.8891 C.2     1  UNL1        0.0492
     10 C          65.2142   91.0425   14.5332 C.2     1  UNL1        0.0920
     11 CL         65.9401   91.9291   15.5014 Cl      1  UNL1       -0.0793
     12 C          66.2763   93.3714   12.0770 C.3     1  UNL1        0.2525
     13 O          65.0428   93.0172   12.8535 O.2     1  UNL1       -0.4705
     14 C          63.1808   84.3453   12.8430 C.ar    1  UNL1       -0.0068
     15 C          64.2720   84.4202   13.8694 C.ar    1  UNL1       -0.0035
     16 C          64.9364   83.1644   14.3507 C.ar    1  UNL1        0.0020
     17 C          64.5097   81.8338   13.8055 C.ar    1  UNL1        0.0296
     18 C          63.4184   81.7590   12.7790 C.ar    1  UNL1        0.1398
     19 F          62.9917   80.4283   12.2338 F       1  UNL1       -0.2042
     20 C          62.7540   83.0147   12.2977 C.ar    1  UNL1        0.0260
     21 C          61.2728   85.5190   11.5270 C.3     1  UNL1        0.1065
     22 N          61.1310   86.3786   10.3059 N.am    1  UNL1       -0.2999
     23 C          60.2069   87.5600   10.3236 C.2     1  UNL1        0.2475
     24 O          59.4246   87.8819   11.5623 O.2     1  UNL1       -0.2701
     25 H          61.6444   86.1674    9.4928 H       1  UNL1        0.1498
     26 C          60.0651   88.4195    9.1024 C.ar    1  UNL1        0.0745
     27 C          59.4129   87.8687    7.8691 C.ar    1  UNL1        0.0643
     28 CL         58.9025   86.4583    7.8568 Cl      1  UNL1       -0.0820
     29 C          59.2711   88.7282    6.6480 C.ar    1  UNL1        0.0308
     30 C          59.7816   90.1387    6.6602 C.ar    1  UNL1        0.0863
     31 C          60.4338   90.6896    7.8936 C.ar    1  UNL1        0.0308
     32 C          60.5755   89.8300    9.1147 C.ar    1  UNL1        0.0643
     33 CL         61.2277   90.3809   10.3480 Cl      1  UNL1       -0.0820
     34 N          59.6398   90.9982    5.4391 N.ar    1  UNL1       -0.2083
     35 C          58.3585   91.5664    4.9048 C.ar    1  UNL1        0.2013
     36 N          58.6812   92.3598    3.6734 N.ar    1  UNL1       -0.2073
     37 C          60.1619   92.2820    3.4467 C.ar    1  UNL1        0.1613
     38 C          60.9175   92.9316    2.3255 C.3     1  UNL1        0.0756
     39 N          60.7544   91.4405    4.5380 N.ar    1  UNL1       -0.1487
@<TRIPOS>BOND
     1    12    13    1
     2    13     2    1
     3     2     3    2
     4     3     4    1
     5     4     5    2
     6     5     6    1
     7     6     1    1
     8     1    21    1
     9    21    22    1
    10    22    23   am
    11    23    24    2
    12    23    26    1
    13    26    27   ar
    14    27    28    1
    15    27    29   ar
    16    29    30   ar
    17    30    34    1
    18    34    35   ar
    19    35    36   ar
    20    36    37   ar
    21    37    38    1
    22    37    39   ar
    23    30    31   ar
    24    31    32   ar
    25    32    33    1
    26     1    14    1
    27    14    15   ar
    28    15    16   ar
    29    16    17   ar
    30    17    18   ar
    31    18    19    1
    32    18    20   ar
    33     6     7    2
    34     7     8    1
    35     8     9    1
    36     9    10    2
    37    10    11    1
    38    10     2    1
    39     8     4    1
    40    32    26   ar
    41    20    14   ar
    42    39    34   ar
    43    22    25    1
