@<TRIPOS>MOLECULE
*****
 38 44 0 0 0
SMALL
GASTEIGER

@<TRIPOS>ATOM
      1 N          59.6276   86.8934    7.7093 N.pl3   1  UNL1       -0.3414
      2 C          60.5529   86.9498    8.8885 C.ar    1  UNL1        0.1432
      3 N          60.8852   85.6959    9.6418 N.ar    1  UNL1       -0.2265
      4 C          61.8105   85.7523   10.8210 C.ar    1  UNL1        0.1193
      5 C          62.4036   87.0627   11.2468 C.ar    1  UNL1        0.1020
      6 N          62.0714   88.3164   10.4936 N.ar    1  UNL1       -0.2885
      7 C          61.1461   88.2601    9.3144 C.ar    1  UNL1        0.1141
      8 C          61.0034   89.6506    8.7702 C.ar    1  UNL1        0.1014
      9 N          61.8405   90.5664    9.6131 N.ar    1  UNL1       -0.2305
     10 C          62.5006   89.7419   10.6782 C.ar    1  UNL1        0.1239
     11 H          59.2383   86.0335    7.4297 H       1  UNL1        0.1438
     12 H          59.4096   87.7164    7.2148 H       1  UNL1        0.1438
     13 C          60.1698   90.0544    7.5902 C.ar    1  UNL1        0.0207
     14 C          58.7280   89.6476    7.5161 C.ar    1  UNL1        0.0016
     15 C          57.8945   90.0514    6.3362 C.ar    1  UNL1        0.0015
     16 C          58.5029   90.8620    5.2304 C.ar    1  UNL1        0.0177
     17 C          57.6694   91.2658    4.0504 C.ar    1  UNL1        0.0030
     18 C          58.2778   92.0764    2.9446 C.ar    1  UNL1        0.0191
     19 C          59.7197   92.4831    3.0188 C.ar    1  UNL1        0.0812
     20 N          60.5532   92.0794    4.1987 N.ar    1  UNL1       -0.2454
     21 C          59.9448   91.2688    5.3045 C.ar    1  UNL1        0.0813
     22 C          60.7782   90.8650    6.4844 C.ar    1  UNL1        0.0206
     23 C          60.3281   93.2937    1.9130 C.ar    1  UNL1        0.0176
     24 C          60.3534   94.7906    2.0068 C.ar    1  UNL1        0.0015
     25 C          60.9617   95.6012    0.9010 C.ar    1  UNL1        0.0000
     26 C          61.5449   94.9149   -0.2986 C.ar    1  UNL1        0.0000
     27 C          61.5196   93.4181   -0.3924 C.ar    1  UNL1        0.0000
     28 C          60.9112   92.6075    0.7134 C.ar    1  UNL1        0.0015
     29 C          63.4273   90.2530   11.7413 C.3     1  UNL1        0.0599
     30 C          64.2808   91.4754   11.9062 C.3     1  UNL1        0.0235
     31 C          64.7377   90.9758   13.2447 C.3     1  UNL1        0.0584
     32 C          63.8841   89.7534   13.0798 C.3     1  UNL1        0.0235
     33 N          65.6643   91.4870   14.3078 N.3     1  UNL1       -0.2739
     34 C          67.1433   91.5216   14.0603 C.3     1  UNL1        0.0720
     35 C          68.0699   92.0327   15.1233 C.3     1  UNL1        0.0174
     36 C          67.5175   92.5092   16.4339 C.3     1  UNL1        0.0029
     37 C          66.0385   92.4746   16.6815 C.3     1  UNL1        0.0174
     38 C          65.1118   91.9634   15.6184 C.3     1  UNL1        0.0720
@<TRIPOS>BOND
     1     1     2    1
     2     2     3   ar
     3     3     4   ar
     4     4     5   ar
     5     5     6   ar
     6     6     7   ar
     7     7     8   ar
     8     8    13    1
     9    13    14   ar
    10    14    15   ar
    11    15    16   ar
    12    16    17   ar
    13    17    18   ar
    14    18    19   ar
    15    19    23    1
    16    23    24   ar
    17    24    25   ar
    18    25    26   ar
    19    26    27   ar
    20    27    28   ar
    21    19    20   ar
    22    20    21   ar
    23    21    22   ar
    24     8     9   ar
    25     9    10   ar
    26    29    10    1
    27    29    30    1
    28    30    31    1
    29    31    33    1
    30    33    34    1
    31    34    35    1
    32    35    36    1
    33    36    37    1
    34    37    38    1
    35    31    32    1
    36     7     2   ar
    37    22    13   ar
    38    32    29    1
    39    10     6   ar
    40    38    33    1
    41    21    16   ar
    42    28    23   ar
    43     1    11    1
    44     1    12    1
@<TRIPOS>MOLECULE
*****
 38 44 0 0 0
SMALL
GASTEIGER

@<TRIPOS>ATOM
      1 N          60.5200   86.7272   10.7591 N.pl3   1  UNL1       -0.3414
      2 C          60.1582   87.0682    9.3440 C.ar    1  UNL1        0.1432
      3 N          59.5610   86.0224    8.4497 N.ar    1  UNL1       -0.2265
      4 C          59.1992   86.3633    7.0345 C.ar    1  UNL1        0.1193
      5 C          59.4346   87.7502    6.5136 C.ar    1  UNL1        0.1020
      6 N          60.0317   88.7960    7.4078 N.ar    1  UNL1       -0.2885
      7 C          60.3935   88.4550    8.8230 C.ar    1  UNL1        0.1141
      8 C          60.9624   89.6854    9.4653 C.ar    1  UNL1        0.1014
      9 N          60.9522   90.7868    8.4471 N.ar    1  UNL1       -0.2305
     10 C          60.3770   90.2371    7.1755 C.ar    1  UNL1        0.1239
     11 H          60.3656   85.8170   11.1011 H       1  UNL1        0.1438
     12 H          60.9119   87.4137   11.3461 H       1  UNL1        0.1438
     13 C          61.4550   89.7950   10.8779 C.ar    1  UNL1        0.0207
     14 C          60.6049   89.2981   12.0094 C.ar    1  UNL1        0.0016
     15 C          61.0975   89.4078   13.4219 C.ar    1  UNL1        0.0015
     16 C          62.4403   90.0144   13.7029 C.ar    1  UNL1        0.0177
     17 C          62.9330   90.1241   15.1155 C.ar    1  UNL1        0.0030
     18 C          64.2758   90.7307   15.3966 C.ar    1  UNL1        0.0191
     19 C          65.1259   91.2276   14.2650 C.ar    1  UNL1        0.0812
     20 N          64.6333   91.1179   12.8525 N.ar    1  UNL1       -0.2454
     21 C          63.2905   90.5113   12.5715 C.ar    1  UNL1        0.0813
     22 C          62.7978   90.4016   11.1590 C.ar    1  UNL1        0.0206
     23 C          66.4687   91.8342   14.5460 C.ar    1  UNL1        0.0176
     24 C          67.5972   91.6396   13.5771 C.ar    1  UNL1        0.0015
     25 C          68.9400   92.2462   13.8581 C.ar    1  UNL1        0.0000
     26 C          69.1543   93.0473   15.1080 C.ar    1  UNL1        0.0000
     27 C          68.0258   93.2419   16.0769 C.ar    1  UNL1        0.0000
     28 C          66.6831   92.6353   15.7959 C.ar    1  UNL1        0.0015
     29 C          60.1814   90.9955    5.8962 C.3     1  UNL1        0.0599
     30 C          59.0271   91.6989    5.2460 C.3     1  UNL1        0.0235
     31 C          59.9048   92.0679    4.0869 C.3     1  UNL1        0.0584
     32 C          61.0591   91.3645    4.7371 C.3     1  UNL1        0.0235
     33 N          59.7092   92.8262    2.8076 N.3     1  UNL1       -0.2739
     34 C          59.0088   92.1774    1.6507 C.3     1  UNL1        0.0720
     35 C          58.8132   92.9357    0.3714 C.3     1  UNL1        0.0174
     36 C          59.3180   94.3428    0.2490 C.3     1  UNL1        0.0029
     37 C          60.0184   94.9917    1.4058 C.3     1  UNL1        0.0174
     38 C          60.2140   94.2334    2.6852 C.3     1  UNL1        0.0720
@<TRIPOS>BOND
     1     1     2    1
     2     2     3   ar
     3     3     4   ar
     4     4     5   ar
     5     5     6   ar
     6     6     7   ar
     7     7     8   ar
     8     8    13    1
     9    13    14   ar
    10    14    15   ar
    11    15    16   ar
    12    16    17   ar
    13    17    18   ar
    14    18    19   ar
    15    19    23    1
    16    23    24   ar
    17    24    25   ar
    18    25    26   ar
    19    26    27   ar
    20    27    28   ar
    21    19    20   ar
    22    20    21   ar
    23    21    22   ar
    24     8     9   ar
    25     9    10   ar
    26    29    10    1
    27    29    30    1
    28    30    31    1
    29    31    33    1
    30    33    34    1
    31    34    35    1
    32    35    36    1
    33    36    37    1
    34    37    38    1
    35    31    32    1
    36     7     2   ar
    37    22    13   ar
    38    32    29    1
    39    10     6   ar
    40    38    33    1
    41    21    16   ar
    42    28    23   ar
    43     1    11    1
    44     1    12    1
@<TRIPOS>MOLECULE
*****
 38 44 0 0 0
SMALL
GASTEIGER

@<TRIPOS>ATOM
      1 N          62.0372   90.6243   11.5892 N.pl3   1  UNL1       -0.3414
      2 C          61.8441   89.2819   10.9485 C.ar    1  UNL1        0.1432
      3 N          61.1592   89.1774    9.6180 N.ar    1  UNL1       -0.2265
      4 C          60.9660   87.8350    8.9773 C.ar    1  UNL1        0.1193
      5 C          61.4578   86.5970    9.6671 C.ar    1  UNL1        0.1020
      6 N          62.1426   86.7015   10.9975 N.ar    1  UNL1       -0.2885
      7 C          62.3358   88.0440   11.6382 C.ar    1  UNL1        0.1141
      8 C          63.0415   87.8365   12.9455 C.ar    1  UNL1        0.1014
      9 N          63.2845   86.3658   13.1127 N.ar    1  UNL1       -0.2305
     10 C          62.7289   85.6643   11.9088 C.ar    1  UNL1        0.1239
     11 H          61.7145   91.4368   11.1365 H       1  UNL1        0.1438
     12 H          62.4867   90.6929   12.4624 H       1  UNL1        0.1438
     13 C          63.4351   88.9111   13.9152 C.ar    1  UNL1        0.0207
     14 C          62.4875   89.3242   15.0021 C.ar    1  UNL1        0.0016
     15 C          62.8812   90.3988   15.9718 C.ar    1  UNL1        0.0015
     16 C          64.2224   91.0601   15.8546 C.ar    1  UNL1        0.0177
     17 C          64.6160   92.1348   16.8244 C.ar    1  UNL1        0.0030
     18 C          65.9572   92.7961   16.7072 C.ar    1  UNL1        0.0191
     19 C          66.9048   92.3829   15.6202 C.ar    1  UNL1        0.0812
     20 N          66.5112   91.3083   14.6505 N.ar    1  UNL1       -0.2454
     21 C          65.1700   90.6470   14.7677 C.ar    1  UNL1        0.0813
     22 C          64.7763   89.5724   13.7980 C.ar    1  UNL1        0.0206
     23 C          68.2460   93.0443   15.5031 C.ar    1  UNL1        0.0176
     24 C          69.3064   92.4404   14.6306 C.ar    1  UNL1        0.0015
     25 C          70.6476   93.1018   14.5134 C.ar    1  UNL1        0.0000
     26 C          70.9285   94.3670   15.2687 C.ar    1  UNL1        0.0000
     27 C          69.8682   94.9708   16.1411 C.ar    1  UNL1        0.0000
     28 C          68.5269   94.3094   16.2583 C.ar    1  UNL1        0.0015
     29 C          62.7551   84.1853   11.6599 C.3     1  UNL1        0.0599
     30 C          62.3274   82.9721   12.4314 C.3     1  UNL1        0.0235
     31 C          62.7922   82.0937   11.3079 C.3     1  UNL1        0.0584
     32 C          63.2200   83.3069   10.5364 C.3     1  UNL1        0.0235
     33 N          62.8184   80.6148   11.0590 N.3     1  UNL1       -0.2739
     34 C          63.0332   80.0917    9.6696 C.3     1  UNL1        0.0720
     35 C          63.0594   78.6128    9.4207 C.3     1  UNL1        0.0174
     36 C          62.8708   77.6569   10.5611 C.3     1  UNL1        0.0029
     37 C          62.6560   78.1799   11.9505 C.3     1  UNL1        0.0174
     38 C          62.6298   79.6589   12.1994 C.3     1  UNL1        0.0720
@<TRIPOS>BOND
     1     1     2    1
     2     2     3   ar
     3     3     4   ar
     4     4     5   ar
     5     5     6   ar
     6     6     7   ar
     7     7     8   ar
     8     8    13    1
     9    13    14   ar
    10    14    15   ar
    11    15    16   ar
    12    16    17   ar
    13    17    18   ar
    14    18    19   ar
    15    19    23    1
    16    23    24   ar
    17    24    25   ar
    18    25    26   ar
    19    26    27   ar
    20    27    28   ar
    21    19    20   ar
    22    20    21   ar
    23    21    22   ar
    24     8     9   ar
    25     9    10   ar
    26    29    10    1
    27    29    30    1
    28    30    31    1
    29    31    33    1
    30    33    34    1
    31    34    35    1
    32    35    36    1
    33    36    37    1
    34    37    38    1
    35    31    32    1
    36     7     2   ar
    37    22    13   ar
    38    32    29    1
    39    10     6   ar
    40    38    33    1
    41    21    16   ar
    42    28    23   ar
    43     1    11    1
    44     1    12    1
@<TRIPOS>MOLECULE
*****
 38 44 0 0 0
SMALL
GASTEIGER

@<TRIPOS>ATOM
      1 N          61.7591   91.6631    9.4576 N.pl3   1  UNL1       -0.3414
      2 C          62.2710   90.6020   10.3860 C.ar    1  UNL1        0.1432
      3 N          63.1575   90.9761   11.5367 N.ar    1  UNL1       -0.2265
      4 C          63.6693   89.9149   12.4651 C.ar    1  UNL1        0.1193
      5 C          63.2945   88.4796   12.2427 C.ar    1  UNL1        0.1020
      6 N          62.4080   88.1055   11.0921 N.ar    1  UNL1       -0.2885
      7 C          61.8962   89.1666   10.1637 C.ar    1  UNL1        0.1141
      8 C          61.0455   88.5010    9.1230 C.ar    1  UNL1        0.1014
      9 N          61.0315   87.0284    9.4081 N.ar    1  UNL1       -0.2305
     10 C          61.8736   86.7840   10.6251 C.ar    1  UNL1        0.1239
     11 H          62.0051   92.6052    9.6035 H       1  UNL1        0.1438
     12 H          61.1773   91.4175    8.7024 H       1  UNL1        0.1438
     13 C          60.3337   89.1875    7.9950 C.ar    1  UNL1        0.0207
     14 C          58.8412   89.0908    7.8806 C.ar    1  UNL1        0.0016
     15 C          58.1295   89.7773    6.7527 C.ar    1  UNL1        0.0015
     16 C          58.9102   90.5604    5.7393 C.ar    1  UNL1        0.0177
     17 C          58.1984   91.2469    4.6113 C.ar    1  UNL1        0.0030
     18 C          58.9792   92.0301    3.5979 C.ar    1  UNL1        0.0191
     19 C          60.4717   92.1268    3.7124 C.ar    1  UNL1        0.0812
     20 N          61.1834   91.4403    4.8402 N.ar    1  UNL1       -0.2454
     21 C          60.4027   90.6571    5.8537 C.ar    1  UNL1        0.0813
     22 C          61.1144   89.9707    6.9816 C.ar    1  UNL1        0.0206
     23 C          61.2525   92.9100    2.6989 C.ar    1  UNL1        0.0176
     24 C          60.5838   94.0020    1.9176 C.ar    1  UNL1        0.0015
     25 C          61.3645   94.7852    0.9041 C.ar    1  UNL1        0.0000
     26 C          62.8140   94.4763    0.6720 C.ar    1  UNL1        0.0000
     27 C          63.4826   93.3843    1.4533 C.ar    1  UNL1        0.0000
     28 C          62.7018   92.6011    2.4668 C.ar    1  UNL1        0.0015
     29 C          62.1353   85.4519   11.2631 C.3     1  UNL1        0.0599
     30 C          62.1271   84.9293   12.6691 C.3     1  UNL1        0.0235
     31 C          62.5054   83.5680   12.1653 C.3     1  UNL1        0.0584
     32 C          62.5136   84.0906   10.7593 C.3     1  UNL1        0.0235
     33 N          62.7671   82.2359   12.8033 N.3     1  UNL1       -0.2739
     34 C          64.1505   81.8837   13.2639 C.3     1  UNL1        0.0720
     35 C          64.4123   80.5517   13.9019 C.3     1  UNL1        0.0174
     36 C          63.2906   79.5718   14.0793 C.3     1  UNL1        0.0029
     37 C          61.9072   79.9239   13.6188 C.3     1  UNL1        0.0174
     38 C          61.6454   81.2560   12.9808 C.3     1  UNL1        0.0720
@<TRIPOS>BOND
     1     1     2    1
     2     2     3   ar
     3     3     4   ar
     4     4     5   ar
     5     5     6   ar
     6     6     7   ar
     7     7     8   ar
     8     8    13    1
     9    13    14   ar
    10    14    15   ar
    11    15    16   ar
    12    16    17   ar
    13    17    18   ar
    14    18    19   ar
    15    19    23    1
    16    23    24   ar
    17    24    25   ar
    18    25    26   ar
    19    26    27   ar
    20    27    28   ar
    21    19    20   ar
    22    20    21   ar
    23    21    22   ar
    24     8     9   ar
    25     9    10   ar
    26    29    10    1
    27    29    30    1
    28    30    31    1
    29    31    33    1
    30    33    34    1
    31    34    35    1
    32    35    36    1
    33    36    37    1
    34    37    38    1
    35    31    32    1
    36     7     2   ar
    37    22    13   ar
    38    32    29    1
    39    10     6   ar
    40    38    33    1
    41    21    16   ar
    42    28    23   ar
    43     1    11    1
    44     1    12    1
@<TRIPOS>MOLECULE
*****
 38 44 0 0 0
SMALL
GASTEIGER

@<TRIPOS>ATOM
      1 N          62.9131   91.7519    3.9304 N.pl3   1  UNL1       -0.3414
      2 C          63.1298   92.3789    2.5851 C.ar    1  UNL1        0.1432
      3 N          64.5223   92.6643    2.1061 N.ar    1  UNL1       -0.2265
      4 C          64.7389   93.2914    0.7608 C.ar    1  UNL1        0.1193
      5 C          63.5629   93.6330   -0.1055 C.ar    1  UNL1        0.1020
      6 N          62.1705   93.3476    0.3735 N.ar    1  UNL1       -0.2885
      7 C          61.9539   92.7206    1.7188 C.ar    1  UNL1        0.1141
      8 C          60.4766   92.5577    1.9218 C.ar    1  UNL1        0.1014
      9 N          59.7802   93.0841    0.7020 N.ar    1  UNL1       -0.2305
     10 C          60.8270   93.5723   -0.2549 C.ar    1  UNL1        0.1239
     11 H          63.6849   91.5276    4.4990 H       1  UNL1        0.1438
     12 H          61.9992   91.5646    4.2447 H       1  UNL1        0.1438
     13 C          59.8124   91.9713    3.1323 C.ar    1  UNL1        0.0207
     14 C          58.3963   92.3392    3.4628 C.ar    1  UNL1        0.0016
     15 C          57.7321   91.7528    4.6732 C.ar    1  UNL1        0.0015
     16 C          58.4841   90.7986    5.5530 C.ar    1  UNL1        0.0177
     17 C          57.8199   90.2122    6.7634 C.ar    1  UNL1        0.0030
     18 C          58.5718   89.2580    7.6432 C.ar    1  UNL1        0.0191
     19 C          59.9880   88.8902    7.3126 C.ar    1  UNL1        0.0812
     20 N          60.6521   89.4765    6.1022 N.ar    1  UNL1       -0.2454
     21 C          59.9002   90.4308    5.2224 C.ar    1  UNL1        0.0813
     22 C          60.5643   91.0171    4.0121 C.ar    1  UNL1        0.0206
     23 C          60.7399   87.9360    8.1924 C.ar    1  UNL1        0.0176
     24 C          61.3042   88.4072    9.5000 C.ar    1  UNL1        0.0015
     25 C          62.0561   87.4530   10.3798 C.ar    1  UNL1        0.0000
     26 C          62.2438   86.0276    9.9520 C.ar    1  UNL1        0.0000
     27 C          61.6796   85.5564    8.6445 C.ar    1  UNL1        0.0000
     28 C          60.9277   86.5106    7.7647 C.ar    1  UNL1        0.0015
     29 C          60.5748   94.1787   -1.6035 C.3     1  UNL1        0.0599
     30 C          60.8960   95.4922   -2.2527 C.3     1  UNL1        0.0235
     31 C          60.2180   95.0362   -3.5107 C.3     1  UNL1        0.0584
     32 C          59.8968   93.7227   -2.8615 C.3     1  UNL1        0.0235
     33 N          59.9658   95.6427   -4.8593 N.3     1  UNL1       -0.2739
     34 C          58.6099   96.1901   -5.1937 C.3     1  UNL1        0.0720
     35 C          58.3577   96.7965   -6.5422 C.3     1  UNL1        0.0174
     36 C          59.4613   96.8554   -7.5564 C.3     1  UNL1        0.0029
     37 C          60.8171   96.3080   -7.2219 C.3     1  UNL1        0.0174
     38 C          61.0694   95.7016   -5.8733 C.3     1  UNL1        0.0720
@<TRIPOS>BOND
     1     1     2    1
     2     2     3   ar
     3     3     4   ar
     4     4     5   ar
     5     5     6   ar
     6     6     7   ar
     7     7     8   ar
     8     8    13    1
     9    13    14   ar
    10    14    15   ar
    11    15    16   ar
    12    16    17   ar
    13    17    18   ar
    14    18    19   ar
    15    19    23    1
    16    23    24   ar
    17    24    25   ar
    18    25    26   ar
    19    26    27   ar
    20    27    28   ar
    21    19    20   ar
    22    20    21   ar
    23    21    22   ar
    24     8     9   ar
    25     9    10   ar
    26    29    10    1
    27    29    30    1
    28    30    31    1
    29    31    33    1
    30    33    34    1
    31    34    35    1
    32    35    36    1
    33    36    37    1
    34    37    38    1
    35    31    32    1
    36     7     2   ar
    37    22    13   ar
    38    32    29    1
    39    10     6   ar
    40    38    33    1
    41    21    16   ar
    42    28    23   ar
    43     1    11    1
    44     1    12    1
