@<TRIPOS>MOLECULE
*****
 42 45 0 0 0
SMALL
GASTEIGER

@<TRIPOS>ATOM
      1 C          64.1929   89.3689   13.1825 C.ar    1  UNL1        0.0053
      2 C          64.4954   89.1543   14.6359 C.ar    1  UNL1        0.0033
      3 C          64.2689   87.8085   15.2583 C.ar    1  UNL1        0.0382
      4 C          63.7399   86.6773   14.4273 C.ar    1  UNL1        0.1529
      5 C          63.4374   86.8919   12.9739 C.ar    1  UNL1        0.0881
      6 C          63.6639   88.2377   12.3515 C.ar    1  UNL1        0.0181
      7 N          62.9084   85.7606   12.1430 N.am    1  UNL1       -0.2528
      8 C          62.6819   84.4148   12.7654 C.2     1  UNL1        0.2697
      9 O          62.1529   83.2836   11.9344 O.2     1  UNL1       -0.2704
     10 C          62.9845   84.2002   14.2189 C.3     1  UNL1        0.2199
     11 C          63.1196   83.5094   15.5434 C.3     1  UNL1        0.0579
     12 O          63.5135   85.3314   15.0498 O.3     1  UNL1       -0.4686
     13 C          65.2868   91.7245   13.2514 C.ar    1  UNL1        0.0645
     14 N          65.5132   93.0703   12.6290 N.ar    1  UNL1       -0.2183
     15 C          64.8723   93.4064   11.3151 C.ar    1  UNL1        0.2145
     16 N          65.0988   94.7522   10.6926 N.pl3   1  UNL1       -0.3274
     17 N          64.0049   92.3967   10.6237 N.ar    1  UNL1       -0.1995
     18 C          63.7784   91.0508   11.2462 C.ar    1  UNL1        0.1293
     19 N          62.9110   90.0411   10.5548 N.pl3   1  UNL1       -0.3425
     20 C          64.4193   90.7148   12.5600 C.ar    1  UNL1        0.0449
     21 H          65.6681   95.4149   11.1464 H       1  UNL1        0.1452
     22 H          64.6781   94.9729    9.8303 H       1  UNL1        0.1452
     23 H          62.4903   90.2617    9.6924 H       1  UNL1        0.1437
     24 H          62.7623   89.1578   10.9633 H       1  UNL1        0.1437
     25 C          67.3632   91.7461   14.8128 C.3     1  UNL1        0.0067
     26 C          65.9277   91.3883   14.5653 C.3     1  UNL1        0.0460
     27 C          62.5024   82.8291   13.8479 C.ar    1  UNL1        0.0264
     28 C          63.2569   82.0166   12.8377 C.ar    1  UNL1        0.0293
     29 C          62.7748   80.6454   12.4668 C.ar    1  UNL1        0.1422
     30 F          63.5295   79.8330   11.4565 F       1  UNL1       -0.2041
     31 C          61.5383   80.0868   13.1060 C.ar    1  UNL1        0.0592
     32 C          60.7837   80.8993   14.1162 C.ar    1  UNL1        0.1422
     33 F          59.5471   80.3406   14.7554 F       1  UNL1       -0.2041
     34 C          61.2657   82.2704   14.4872 C.ar    1  UNL1        0.0293
     35 C          62.6059   85.9752   10.6896 C.3     1  UNL1        0.1010
     36 C          61.1839   86.1097   10.2314 C.3     1  UNL1        0.0542
     37 C          60.5242   87.4569   10.2188 C.3     1  UNL1        0.1523
     38 O          60.4044   88.2452   11.4893 O.3     1  UNL1       -0.2784
     39 C          59.7232   89.5815   11.4813 C.3     1  UNL1        0.5251
     40 F          59.0420   90.9180   11.4735 F       1  UNL1       -0.1440
     41 F          59.7278   89.5749    9.9814 F       1  UNL1       -0.1440
     42 F          59.7187   89.5881   12.9813 F       1  UNL1       -0.1440
@<TRIPOS>BOND
     1    25    26    1
     2    26    13    1
     3    13    14   ar
     4    14    15   ar
     5    15    16    1
     6    15    17   ar
     7    17    18   ar
     8    18    19    1
     9    18    20   ar
    10    20     1    1
    11     1     2   ar
    12     2     3   ar
    13     3     4   ar
    14     4     5   ar
    15     5     6   ar
    16     5     7    1
    17     7    35    1
    18    35    36    1
    19    36    37    1
    20    37    38    1
    21    38    39    1
    22    39    40    1
    23    39    41    1
    24    39    42    1
    25     7     8   am
    26     8     9    2
    27     8    10    1
    28    10    11    1
    29    10    27    1
    30    27    28   ar
    31    28    29   ar
    32    29    30    1
    33    29    31   ar
    34    31    32   ar
    35    32    33    1
    36    32    34   ar
    37    10    12    1
    38    20    13   ar
    39     6     1   ar
    40    34    27   ar
    41    12     4    1
    42    16    21    1
    43    16    22    1
    44    19    23    1
    45    19    24    1
@<TRIPOS>MOLECULE
*****
 42 45 0 0 0
SMALL
GASTEIGER

@<TRIPOS>ATOM
      1 C          64.1373   89.2618   13.1984 C.ar    1  UNL1        0.0053
      2 C          64.4344   89.0518   14.6535 C.ar    1  UNL1        0.0033
      3 C          64.2056   87.7079   15.2793 C.ar    1  UNL1        0.0382
      4 C          63.6797   86.5741   14.4500 C.ar    1  UNL1        0.1529
      5 C          63.3825   86.7841   12.9948 C.ar    1  UNL1        0.0881
      6 C          63.6113   88.1280   12.3690 C.ar    1  UNL1        0.0181
      7 N          62.8565   85.6503   12.1655 N.am    1  UNL1       -0.2528
      8 C          62.6277   84.3065   12.7913 C.2     1  UNL1        0.2697
      9 O          62.1018   83.1727   11.9619 O.2     1  UNL1       -0.2704
     10 C          62.9249   84.0964   14.2465 C.3     1  UNL1        0.2199
     11 C          63.0551   83.4098   15.5738 C.3     1  UNL1        0.0579
     12 O          63.4509   85.2302   15.0759 O.3     1  UNL1       -0.4686
     13 C          65.2611   91.6038   13.2453 C.ar    1  UNL1        0.0645
     14 N          65.4900   92.9476   12.6195 N.ar    1  UNL1       -0.2183
     15 C          64.8237   93.2934   11.3208 C.ar    1  UNL1        0.2145
     16 N          65.0526   94.6373   10.6949 N.pl3   1  UNL1       -0.3274
     17 N          63.9287   92.2954   10.6479 N.ar    1  UNL1       -0.1995
     18 C          63.6999   90.9515   11.2738 C.ar    1  UNL1        0.1293
     19 N          62.8048   89.9534   10.6010 N.pl3   1  UNL1       -0.3425
     20 C          64.3661   90.6057   12.5725 C.ar    1  UNL1        0.0449
     21 H          65.6400   95.2923   11.1366 H       1  UNL1        0.1452
     22 H          64.6153   94.8642    9.8426 H       1  UNL1        0.1452
     23 H          62.3675   90.1803    9.7486 H       1  UNL1        0.1437
     24 H          62.6546   89.0713   11.0117 H       1  UNL1        0.1437
     25 C          67.3610   91.6339   14.7749 C.3     1  UNL1        0.0067
     26 C          65.9274   91.2580   14.5440 C.3     1  UNL1        0.0460
     27 C          62.4442   82.7242   13.8781 C.ar    1  UNL1        0.0264
     28 C          63.2069   81.9053   12.8793 C.ar    1  UNL1        0.0293
     29 C          62.7261   80.5330   12.5109 C.ar    1  UNL1        0.1422
     30 F          63.4890   79.7142   11.5120 F       1  UNL1       -0.2041
     31 C          61.4827   79.9796   13.1412 C.ar    1  UNL1        0.0592
     32 C          60.7200   80.7984   14.1401 C.ar    1  UNL1        0.1422
     33 F          59.4764   80.2450   14.7705 F       1  UNL1       -0.2041
     34 C          61.2006   82.1707   14.5085 C.ar    1  UNL1        0.0293
     35 C          62.5594   85.8604   10.7103 C.3     1  UNL1        0.1010
     36 C          61.2028   86.3370   10.2830 C.3     1  UNL1        0.0542
     37 C          60.8244   86.3190    8.8316 C.3     1  UNL1        0.1523
     38 O          61.8304   85.9039    7.7993 O.3     1  UNL1       -0.2784
     39 C          61.4803   84.8486    6.7925 C.3     1  UNL1        0.5251
     40 F          61.1300   83.7933    5.7856 F       1  UNL1       -0.1440
     41 F          62.9388   84.5923    6.5539 F       1  UNL1       -0.1440
     42 F          60.0217   85.1050    7.0311 F       1  UNL1       -0.1440
@<TRIPOS>BOND
     1    25    26    1
     2    26    13    1
     3    13    14   ar
     4    14    15   ar
     5    15    16    1
     6    15    17   ar
     7    17    18   ar
     8    18    19    1
     9    18    20   ar
    10    20     1    1
    11     1     2   ar
    12     2     3   ar
    13     3     4   ar
    14     4     5   ar
    15     5     6   ar
    16     5     7    1
    17     7    35    1
    18    35    36    1
    19    36    37    1
    20    37    38    1
    21    38    39    1
    22    39    40    1
    23    39    41    1
    24    39    42    1
    25     7     8   am
    26     8     9    2
    27     8    10    1
    28    10    11    1
    29    10    27    1
    30    27    28   ar
    31    28    29   ar
    32    29    30    1
    33    29    31   ar
    34    31    32   ar
    35    32    33    1
    36    32    34   ar
    37    10    12    1
    38    20    13   ar
    39     6     1   ar
    40    34    27   ar
    41    12     4    1
    42    16    21    1
    43    16    22    1
    44    19    23    1
    45    19    24    1
@<TRIPOS>MOLECULE
*****
 42 45 0 0 0
SMALL
GASTEIGER

@<TRIPOS>ATOM
      1 C          64.1317   89.2655   13.1778 C.ar    1  UNL1        0.0053
      2 C          64.4316   89.0592   14.6329 C.ar    1  UNL1        0.0033
      3 C          64.2053   87.7166   15.2623 C.ar    1  UNL1        0.0382
      4 C          63.6790   86.5802   14.4365 C.ar    1  UNL1        0.1529
      5 C          63.3791   86.7865   12.9814 C.ar    1  UNL1        0.0881
      6 C          63.6054   88.1291   12.3520 C.ar    1  UNL1        0.0181
      7 N          62.8529   85.6502   12.1556 N.am    1  UNL1       -0.2528
      8 C          62.6266   84.3076   12.7850 C.2     1  UNL1        0.2697
      9 O          62.1003   83.1713   11.9592 O.2     1  UNL1       -0.2704
     10 C          62.9265   84.1013   14.2402 C.3     1  UNL1        0.2199
     11 C          63.0597   83.4179   15.5688 C.3     1  UNL1        0.0579
     12 O          63.4527   85.2376   15.0659 O.3     1  UNL1       -0.4686
     13 C          63.6738   90.9573   11.2600 C.ar    1  UNL1        0.0645
     14 N          63.9000   92.2999   10.6305 N.ar    1  UNL1       -0.2183
     15 C          64.8106   93.2933   11.2894 C.ar    1  UNL1        0.2145
     16 N          65.0368   94.6359   10.6600 N.pl3   1  UNL1       -0.3274
     17 N          65.4948   92.9441   12.5778 N.ar    1  UNL1       -0.1995
     18 C          65.2685   91.6015   13.2072 C.ar    1  UNL1        0.1293
     19 N          65.9527   91.2522   14.4956 N.pl3   1  UNL1       -0.3425
     20 C          64.3580   90.6081   12.5483 C.ar    1  UNL1        0.0449
     21 H          64.5878   94.8651    9.8144 H       1  UNL1        0.1452
     22 H          65.6344   95.2879   11.0924 H       1  UNL1        0.1452
     23 H          66.5503   91.9042   14.9281 H       1  UNL1        0.1437
     24 H          65.8042   90.3710   14.9087 H       1  UNL1        0.1437
     25 C          61.2957   90.2524   10.4867 C.3     1  UNL1        0.0067
     26 C          62.7632   89.9639   10.6010 C.3     1  UNL1        0.0460
     27 C          62.4465   82.7277   13.8758 C.ar    1  UNL1        0.0264
     28 C          61.2049   82.1743   14.5100 C.ar    1  UNL1        0.0293
     29 C          60.7250   80.8006   14.1456 C.ar    1  UNL1        0.1422
     30 F          59.4833   80.2473   14.7799 F       1  UNL1       -0.2041
     31 C          61.4865   79.9804   13.1472 C.ar    1  UNL1        0.0592
     32 C          62.7281   80.5338   12.5130 C.ar    1  UNL1        0.1422
     33 F          63.4898   79.7135   11.5145 F       1  UNL1       -0.2041
     34 C          63.2082   81.9074   12.8773 C.ar    1  UNL1        0.0293
     35 C          62.5530   85.8565   10.7005 C.3     1  UNL1        0.1010
     36 C          61.2496   86.4706   10.2830 C.3     1  UNL1        0.0542
     37 C          60.7671   86.3187    8.8709 C.3     1  UNL1        0.1523
     38 O          61.7407   85.9956    7.7764 O.3     1  UNL1       -0.2784
     39 C          61.4423   84.8878    6.8101 C.3     1  UNL1        0.5251
     40 F          61.1441   83.7799    5.8438 F       1  UNL1       -0.1440
     41 F          59.9724   85.1065    7.0132 F       1  UNL1       -0.1440
     42 F          62.9123   84.6690    6.6071 F       1  UNL1       -0.1440
@<TRIPOS>BOND
     1    25    26    1
     2    26    13    1
     3    13    14   ar
     4    14    15   ar
     5    15    16    1
     6    15    17   ar
     7    17    18   ar
     8    18    19    1
     9    18    20   ar
    10    20     1    1
    11     1     2   ar
    12     2     3   ar
    13     3     4   ar
    14     4     5   ar
    15     5     6   ar
    16     5     7    1
    17     7    35    1
    18    35    36    1
    19    36    37    1
    20    37    38    1
    21    38    39    1
    22    39    40    1
    23    39    41    1
    24    39    42    1
    25     7     8   am
    26     8     9    2
    27     8    10    1
    28    10    11    1
    29    10    27    1
    30    27    28   ar
    31    28    29   ar
    32    29    30    1
    33    29    31   ar
    34    31    32   ar
    35    32    33    1
    36    32    34   ar
    37    10    12    1
    38    20    13   ar
    39     6     1   ar
    40    34    27   ar
    41    12     4    1
    42    16    21    1
    43    16    22    1
    44    19    23    1
    45    19    24    1
@<TRIPOS>MOLECULE
*****
 42 45 0 0 0
SMALL
GASTEIGER

@<TRIPOS>ATOM
      1 C          64.1311   89.2308   13.1880 C.ar    1  UNL1        0.0053
      2 C          64.4339   89.0233   14.6424 C.ar    1  UNL1        0.0033
      3 C          64.2064   87.6809   15.2718 C.ar    1  UNL1        0.0382
      4 C          63.6761   86.5460   14.4467 C.ar    1  UNL1        0.1529
      5 C          63.3733   86.7534   12.9924 C.ar    1  UNL1        0.0881
      6 C          63.6008   88.0958   12.3630 C.ar    1  UNL1        0.0181
      7 N          62.8430   85.6185   12.1674 N.am    1  UNL1       -0.2528
      8 C          62.6154   84.2761   12.7967 C.2     1  UNL1        0.2697
      9 O          62.0851   83.1411   11.9717 O.2     1  UNL1       -0.2704
     10 C          62.9182   84.0686   14.2512 C.3     1  UNL1        0.2199
     11 C          63.0531   83.3844   15.5792 C.3     1  UNL1        0.0579
     12 O          63.4485   85.2035   15.0762 O.3     1  UNL1       -0.4686
     13 C          65.2542   91.5733   13.2279 C.ar    1  UNL1        0.0645
     14 N          65.4818   92.9157   12.5985 N.ar    1  UNL1       -0.2183
     15 C          64.8138   93.2581   11.2998 C.ar    1  UNL1        0.2145
     16 N          65.0413   94.6005   10.6704 N.pl3   1  UNL1       -0.3274
     17 N          63.9182   92.2581   10.6305 N.ar    1  UNL1       -0.1995
     18 C          63.6907   90.9156   11.2599 C.ar    1  UNL1        0.1293
     19 N          62.7951   89.9156   10.5907 N.pl3   1  UNL1       -0.3425
     20 C          64.3587   90.5732   12.5586 C.ar    1  UNL1        0.0449
     21 H          65.6291   95.2568   11.1097 H       1  UNL1        0.1452
     22 H          64.6029   94.8252    9.8181 H       1  UNL1        0.1452
     23 H          62.3567   90.1403    9.7383 H       1  UNL1        0.1437
     24 H          62.6458   89.0345   11.0038 H       1  UNL1        0.1437
     25 C          67.3425   91.6464   14.7719 C.3     1  UNL1        0.0067
     26 C          65.9222   91.2308   14.5266 C.3     1  UNL1        0.0460
     27 C          62.4347   82.6961   13.8874 C.ar    1  UNL1        0.0264
     28 C          61.1909   82.1467   14.5207 C.ar    1  UNL1        0.0293
     29 C          60.7074   80.7741   14.1568 C.ar    1  UNL1        0.1422
     30 F          59.4635   80.2248   14.7902 F       1  UNL1       -0.2041
     31 C          61.4677   79.9509   13.1598 C.ar    1  UNL1        0.0592
     32 C          62.7116   80.5003   12.5266 C.ar    1  UNL1        0.1422
     33 F          63.4720   79.6770   11.5295 F       1  UNL1       -0.2041
     34 C          63.1951   81.8728   12.8903 C.ar    1  UNL1        0.0293
     35 C          62.5402   85.8259   10.7130 C.3     1  UNL1        0.1010
     36 C          61.2074   86.3726   10.2949 C.3     1  UNL1        0.0542
     37 C          60.8416   86.4269    8.8411 C.3     1  UNL1        0.1523
     38 O          61.8379   86.0080    7.8010 O.3     1  UNL1       -0.2784
     39 C          61.5020   84.9045    6.8421 C.3     1  UNL1        0.5251
     40 F          61.1662   83.8010    5.8832 F       1  UNL1       -0.1440
     41 F          60.0409   85.1901    7.0253 F       1  UNL1       -0.1440
     42 F          62.9631   84.6190    6.6590 F       1  UNL1       -0.1440
@<TRIPOS>BOND
     1    25    26    1
     2    26    13    1
     3    13    14   ar
     4    14    15   ar
     5    15    16    1
     6    15    17   ar
     7    17    18   ar
     8    18    19    1
     9    18    20   ar
    10    20     1    1
    11     1     2   ar
    12     2     3   ar
    13     3     4   ar
    14     4     5   ar
    15     5     6   ar
    16     5     7    1
    17     7    35    1
    18    35    36    1
    19    36    37    1
    20    37    38    1
    21    38    39    1
    22    39    40    1
    23    39    41    1
    24    39    42    1
    25     7     8   am
    26     8     9    2
    27     8    10    1
    28    10    11    1
    29    10    27    1
    30    27    28   ar
    31    28    29   ar
    32    29    30    1
    33    29    31   ar
    34    31    32   ar
    35    32    33    1
    36    32    34   ar
    37    10    12    1
    38    20    13   ar
    39     6     1   ar
    40    34    27   ar
    41    12     4    1
    42    16    21    1
    43    16    22    1
    44    19    23    1
    45    19    24    1
@<TRIPOS>MOLECULE
*****
 42 45 0 0 0
SMALL
GASTEIGER

@<TRIPOS>ATOM
      1 C          65.4227   90.8060   14.1109 C.ar    1  UNL1        0.0053
      2 C          65.0931   89.5478   14.8579 C.ar    1  UNL1        0.0033
      3 C          64.1477   88.5474   14.2617 C.ar    1  UNL1        0.0382
      4 C          63.5319   88.8054   12.9185 C.ar    1  UNL1        0.1529
      5 C          63.8615   90.0636   12.1715 C.ar    1  UNL1        0.0881
      6 C          64.8069   91.0640   12.7677 C.ar    1  UNL1        0.0181
      7 N          63.2456   90.3216   10.8282 N.am    1  UNL1       -0.2528
      8 C          62.3003   89.3212   10.2320 C.2     1  UNL1        0.2697
      9 O          61.6844   89.5792    8.8888 O.2     1  UNL1       -0.2704
     10 C          61.9706   88.0629   10.9791 C.3     1  UNL1        0.2199
     11 C          61.3526   86.7339   11.2981 C.3     1  UNL1        0.0579
     12 O          62.5864   87.8049   12.3223 O.3     1  UNL1       -0.4686
     13 C          67.6947   92.0650   14.0565 C.ar    1  UNL1        0.0645
     14 N          68.6401   93.0654   14.6526 N.ar    1  UNL1       -0.2183
     15 C          68.2590   93.8073   15.8994 C.ar    1  UNL1        0.2145
     16 N          69.2044   94.8076   16.4955 N.pl3   1  UNL1       -0.3274
     17 N          66.9324   93.5487   16.5500 N.ar    1  UNL1       -0.1995
     18 C          65.9869   92.5483   15.9538 C.ar    1  UNL1        0.1293
     19 N          64.6603   92.2898   16.6044 N.pl3   1  UNL1       -0.3425
     20 C          66.3681   91.8065   14.7071 C.ar    1  UNL1        0.0449
     21 H          70.0751   94.9773   16.0685 H       1  UNL1        0.1452
     22 H          68.9542   95.2945   17.3138 H       1  UNL1        0.1452
     23 H          64.4101   92.7767   17.4227 H       1  UNL1        0.1437
     24 H          64.0398   91.6332   16.2131 H       1  UNL1        0.1437
     25 C          68.2793   92.0702   11.5250 C.3     1  UNL1        0.0067
     26 C          68.0759   91.3231   12.8097 C.3     1  UNL1        0.0460
     27 C          61.1402   87.8593    9.7467 C.ar    1  UNL1        0.0264
     28 C          61.1692   86.5407    9.0321 C.ar    1  UNL1        0.0293
     29 C          60.3388   86.3371    7.7996 C.ar    1  UNL1        0.1422
     30 F          60.3678   85.0185    7.0851 F       1  UNL1       -0.2041
     31 C          59.4793   87.4520    7.2817 C.ar    1  UNL1        0.0592
     32 C          59.4503   88.7705    7.9963 C.ar    1  UNL1        0.1422
     33 F          58.5908   89.8855    7.4784 F       1  UNL1       -0.2041
     34 C          60.2807   88.9742    9.2287 C.ar    1  UNL1        0.0293
     35 C          63.5752   91.5798   10.0812 C.3     1  UNL1        0.1010
     36 C          64.8669   92.2942   10.3483 C.3     1  UNL1        0.0542
     37 C          64.9850   93.7621   10.0632 C.3     1  UNL1        0.1523
     38 O          66.2476   94.4942   10.4095 O.3     1  UNL1       -0.2784
     39 C          66.2084   95.6419   11.3745 C.3     1  UNL1        0.5251
     40 F          66.1693   96.7896   12.3396 F       1  UNL1       -0.1440
     41 F          66.2199   96.6074   10.2267 F       1  UNL1       -0.1440
     42 F          66.1970   94.6763   12.5223 F       1  UNL1       -0.1440
@<TRIPOS>BOND
     1    25    26    1
     2    26    13    1
     3    13    14   ar
     4    14    15   ar
     5    15    16    1
     6    15    17   ar
     7    17    18   ar
     8    18    19    1
     9    18    20   ar
    10    20     1    1
    11     1     2   ar
    12     2     3   ar
    13     3     4   ar
    14     4     5   ar
    15     5     6   ar
    16     5     7    1
    17     7    35    1
    18    35    36    1
    19    36    37    1
    20    37    38    1
    21    38    39    1
    22    39    40    1
    23    39    41    1
    24    39    42    1
    25     7     8   am
    26     8     9    2
    27     8    10    1
    28    10    11    1
    29    10    27    1
    30    27    28   ar
    31    28    29   ar
    32    29    30    1
    33    29    31   ar
    34    31    32   ar
    35    32    33    1
    36    32    34   ar
    37    10    12    1
    38    20    13   ar
    39     6     1   ar
    40    34    27   ar
    41    12     4    1
    42    16    21    1
    43    16    22    1
    44    19    23    1
    45    19    24    1
@<TRIPOS>MOLECULE
*****
 42 45 0 0 0
SMALL
GASTEIGER

@<TRIPOS>ATOM
      1 C          64.1615   89.3078   13.2439 C.ar    1  UNL1        0.0053
      2 C          64.4237   89.1017   14.7063 C.ar    1  UNL1        0.0033
      3 C          64.1818   87.7591   15.3297 C.ar    1  UNL1        0.0382
      4 C          63.6777   86.6224   14.4906 C.ar    1  UNL1        0.1529
      5 C          63.4155   86.8285   13.0282 C.ar    1  UNL1        0.0881
      6 C          63.6574   88.1712   12.4048 C.ar    1  UNL1        0.0181
      7 N          62.9115   85.6919   12.1891 N.am    1  UNL1       -0.2528
      8 C          62.6696   84.3492   12.8124 C.2     1  UNL1        0.2697
      9 O          62.1655   83.2126   11.9734 O.2     1  UNL1       -0.2704
     10 C          62.9317   84.1431   14.2750 C.3     1  UNL1        0.2199
     11 C          63.0308   83.4599   15.6066 C.3     1  UNL1        0.0579
     12 O          63.4358   85.2797   15.1140 O.3     1  UNL1       -0.4686
     13 C          63.6717   91.0397   11.3702 C.ar    1  UNL1        0.0645
     14 N          63.9135   92.3824   10.7468 N.ar    1  UNL1       -0.2183
     15 C          64.8872   93.3360   11.3736 C.ar    1  UNL1        0.2145
     16 N          65.1290   94.6786   10.7501 N.pl3   1  UNL1       -0.3274
     17 N          65.6189   92.9468   12.6238 N.ar    1  UNL1       -0.1995
     18 C          65.3770   91.6041   13.2473 C.ar    1  UNL1        0.1293
     19 N          66.1087   91.2149   14.4975 N.pl3   1  UNL1       -0.3425
     20 C          64.4034   90.6506   12.6204 C.ar    1  UNL1        0.0449
     21 H          64.6487   94.9340    9.9296 H       1  UNL1        0.1452
     22 H          65.7680   95.3045   11.1615 H       1  UNL1        0.1452
     23 H          66.7477   91.8407   14.9089 H       1  UNL1        0.1437
     24 H          65.9500   90.3336   14.9067 H       1  UNL1        0.1437
     25 C          61.2236   90.3383   10.8552 C.3     1  UNL1        0.0067
     26 C          62.6981   90.0862   10.7434 C.3     1  UNL1        0.0460
     27 C          62.4621   82.7692   13.8984 C.ar    1  UNL1        0.0264
     28 C          63.2409   81.9558   12.9075 C.ar    1  UNL1        0.0293
     29 C          62.7711   80.5818   12.5309 C.ar    1  UNL1        0.1422
     30 F          63.5500   79.7684   11.5400 F       1  UNL1       -0.2041
     31 C          61.5228   80.0214   13.1451 C.ar    1  UNL1        0.0592
     32 C          60.7440   80.8349   14.1360 C.ar    1  UNL1        0.1422
     33 F          59.4956   80.2744   14.7502 F       1  UNL1       -0.2041
     34 C          61.2136   82.2088   14.5126 C.ar    1  UNL1        0.0293
     35 C          62.6493   85.8980   10.7267 C.3     1  UNL1        0.1010
     36 C          61.2420   86.0543   10.2317 C.3     1  UNL1        0.0542
     37 C          60.9703   86.8280    8.9756 C.3     1  UNL1        0.1523
     38 O          59.7517   87.6974    8.8791 O.3     1  UNL1       -0.2784
     39 C          59.3871   88.3351    7.5713 C.3     1  UNL1        0.5251
     40 F          59.0225   88.9729    6.2634 F       1  UNL1       -0.1440
     41 F          59.8777   89.6583    8.0798 F       1  UNL1       -0.1440
     42 F          58.8966   87.0120    7.0628 F       1  UNL1       -0.1440
@<TRIPOS>BOND
     1    25    26    1
     2    26    13    1
     3    13    14   ar
     4    14    15   ar
     5    15    16    1
     6    15    17   ar
     7    17    18   ar
     8    18    19    1
     9    18    20   ar
    10    20     1    1
    11     1     2   ar
    12     2     3   ar
    13     3     4   ar
    14     4     5   ar
    15     5     6   ar
    16     5     7    1
    17     7    35    1
    18    35    36    1
    19    36    37    1
    20    37    38    1
    21    38    39    1
    22    39    40    1
    23    39    41    1
    24    39    42    1
    25     7     8   am
    26     8     9    2
    27     8    10    1
    28    10    11    1
    29    10    27    1
    30    27    28   ar
    31    28    29   ar
    32    29    30    1
    33    29    31   ar
    34    31    32   ar
    35    32    33    1
    36    32    34   ar
    37    10    12    1
    38    20    13   ar
    39     6     1   ar
    40    34    27   ar
    41    12     4    1
    42    16    21    1
    43    16    22    1
    44    19    23    1
    45    19    24    1
@<TRIPOS>MOLECULE
*****
 42 45 0 0 0
SMALL
GASTEIGER

@<TRIPOS>ATOM
      1 C          64.3108   89.3903   13.4680 C.ar    1  UNL1        0.0053
      2 C          64.5720   89.1318   14.9222 C.ar    1  UNL1        0.0033
      3 C          64.3096   87.7733   15.5014 C.ar    1  UNL1        0.0382
      4 C          63.7860   86.6732   14.6264 C.ar    1  UNL1        0.1529
      5 C          63.5249   86.9317   13.1721 C.ar    1  UNL1        0.0881
      6 C          63.7873   88.2902   12.5929 C.ar    1  UNL1        0.0181
      7 N          63.0013   85.8316   12.2970 N.am    1  UNL1       -0.2528
      8 C          62.7390   84.4731   12.8763 C.2     1  UNL1        0.2697
      9 O          62.2154   83.3730   12.0012 O.2     1  UNL1       -0.2704
     10 C          63.0001   84.2146   14.3306 C.3     1  UNL1        0.2199
     11 C          63.0903   83.4862   15.6388 C.3     1  UNL1        0.0579
     12 O          63.5236   85.3147   15.2057 O.3     1  UNL1       -0.4686
     13 C          63.9300   91.1491   11.5941 C.ar    1  UNL1        0.0645
     14 N          64.1923   92.5076   11.0148 N.ar    1  UNL1       -0.2183
     15 C          65.0980   93.4659   11.7301 C.ar    1  UNL1        0.2145
     16 N          65.3603   94.8244   11.1508 N.pl3   1  UNL1       -0.3274
     17 N          65.7412   93.0656   13.0247 N.ar    1  UNL1       -0.1995
     18 C          65.4788   91.7070   13.6040 C.ar    1  UNL1        0.1293
     19 N          66.1220   91.3068   14.8986 N.pl3   1  UNL1       -0.3425
     20 C          64.5732   90.7488   12.8887 C.ar    1  UNL1        0.0449
     21 H          64.9381   95.0871   10.3011 H       1  UNL1        0.1452
     22 H          65.9547   95.4533   11.6203 H       1  UNL1        0.1452
     23 H          66.7164   91.9357   15.3681 H       1  UNL1        0.1437
     24 H          65.9498   90.4151   15.2788 H       1  UNL1        0.1437
     25 C          62.3271   90.6152    9.6203 C.3     1  UNL1        0.0067
     26 C          63.0244   90.1908   10.8787 C.3     1  UNL1        0.0460
     27 C          62.5079   82.8616   13.9099 C.ar    1  UNL1        0.0264
     28 C          63.2622   82.0766   12.8780 C.ar    1  UNL1        0.0293
     29 C          62.7700   80.7235   12.4573 C.ar    1  UNL1        0.1422
     30 F          63.5244   79.9385   11.4253 F       1  UNL1       -0.2041
     31 C          61.5235   80.1555   13.0683 C.ar    1  UNL1        0.0592
     32 C          60.7692   80.9405   14.1002 C.ar    1  UNL1        0.1422
     33 F          59.5226   80.3725   14.7113 F       1  UNL1       -0.2041
     34 C          61.2613   82.2935   14.5210 C.ar    1  UNL1        0.0293
     35 C          62.7402   86.0900   10.8428 C.3     1  UNL1        0.1010
     36 C          61.3305   86.1629   10.3353 C.3     1  UNL1        0.0542
     37 C          60.5942   87.4697   10.3513 C.3     1  UNL1        0.1523
     38 O          60.2363   88.1129   11.6583 O.3     1  UNL1       -0.2784
     39 C          59.6363   89.4875   11.6784 C.3     1  UNL1        0.5251
     40 F          59.0363   90.8621   11.6985 F       1  UNL1       -0.1440
     41 F          59.4735   89.4381   10.1881 F       1  UNL1       -0.1440
     42 F          59.7991   89.5368   13.1687 F       1  UNL1       -0.1440
@<TRIPOS>BOND
     1    25    26    1
     2    26    13    1
     3    13    14   ar
     4    14    15   ar
     5    15    16    1
     6    15    17   ar
     7    17    18   ar
     8    18    19    1
     9    18    20   ar
    10    20     1    1
    11     1     2   ar
    12     2     3   ar
    13     3     4   ar
    14     4     5   ar
    15     5     6   ar
    16     5     7    1
    17     7    35    1
    18    35    36    1
    19    36    37    1
    20    37    38    1
    21    38    39    1
    22    39    40    1
    23    39    41    1
    24    39    42    1
    25     7     8   am
    26     8     9    2
    27     8    10    1
    28    10    11    1
    29    10    27    1
    30    27    28   ar
    31    28    29   ar
    32    29    30    1
    33    29    31   ar
    34    31    32   ar
    35    32    33    1
    36    32    34   ar
    37    10    12    1
    38    20    13   ar
    39     6     1   ar
    40    34    27   ar
    41    12     4    1
    42    16    21    1
    43    16    22    1
    44    19    23    1
    45    19    24    1
@<TRIPOS>MOLECULE
*****
 42 45 0 0 0
SMALL
GASTEIGER

@<TRIPOS>ATOM
      1 C          65.3761   90.6770   14.0800 C.ar    1  UNL1        0.0053
      2 C          65.0598   89.4121   14.8216 C.ar    1  UNL1        0.0033
      3 C          64.1308   88.4010   14.2177 C.ar    1  UNL1        0.0382
      4 C          63.5182   88.6548   12.8722 C.ar    1  UNL1        0.1529
      5 C          63.8345   89.9197   12.1306 C.ar    1  UNL1        0.0881
      6 C          64.7634   90.9308   12.7345 C.ar    1  UNL1        0.0181
      7 N          63.2219   90.1735   10.7852 N.am    1  UNL1       -0.2528
      8 C          62.2929   89.1624   10.1813 C.2     1  UNL1        0.2697
      9 O          61.6803   89.4162    8.8358 O.2     1  UNL1       -0.2704
     10 C          61.9766   87.8974   10.9229 C.3     1  UNL1        0.2199
     11 C          61.3749   86.5592   11.2348 C.3     1  UNL1        0.0579
     12 O          62.5892   87.6436   12.2683 O.3     1  UNL1       -0.4686
     13 C          65.9496   92.3527   15.9808 C.ar    1  UNL1        0.0645
     14 N          66.8785   93.3638   16.5847 N.ar    1  UNL1       -0.2183
     15 C          68.1629   93.7104   15.8917 C.ar    1  UNL1        0.2145
     16 N          69.0918   94.7216   16.4955 N.pl3   1  UNL1       -0.3274
     17 N          68.5184   93.0459   14.5947 N.ar    1  UNL1       -0.1995
     18 C          67.5894   92.0347   13.9908 C.ar    1  UNL1        0.1293
     19 N          67.9448   91.3701   12.6939 N.pl3   1  UNL1       -0.3425
     20 C          66.3050   91.6881   14.6839 C.ar    1  UNL1        0.0449
     21 H          68.8585   95.1577   17.3468 H       1  UNL1        0.1452
     22 H          69.9348   94.9490   16.0407 H       1  UNL1        0.1452
     23 H          68.7878   91.5976   12.2391 H       1  UNL1        0.1437
     24 H          67.3351   90.7065   12.2976 H       1  UNL1        0.1437
     25 C          63.7533   93.0967   17.1524 C.3     1  UNL1        0.0067
     26 C          64.6652   92.0061   16.6738 C.3     1  UNL1        0.0460
     27 C          61.1550   87.6865    9.6858 C.ar    1  UNL1        0.0264
     28 C          60.2197   88.7603    9.2145 C.ar    1  UNL1        0.0293
     29 C          59.3981   88.5493    7.9773 C.ar    1  UNL1        0.1422
     30 F          58.4627   89.6232    7.5061 F       1  UNL1       -0.2041
     31 C          59.5118   87.2647    7.2115 C.ar    1  UNL1        0.0592
     32 C          60.4472   86.1909    7.6828 C.ar    1  UNL1        0.1422
     33 F          60.5609   84.9061    6.9169 F       1  UNL1       -0.2041
     34 C          61.2688   86.4017    8.9199 C.ar    1  UNL1        0.0293
     35 C          63.5382   91.4384   10.0436 C.3     1  UNL1        0.1010
     36 C          64.3701   92.5023   10.6962 C.3     1  UNL1        0.0542
     37 C          65.7558   92.7835   10.1952 C.3     1  UNL1        0.1523
     38 O          66.7052   93.5917   11.0292 O.3     1  UNL1       -0.2784
     39 C          66.3388   94.9858   11.4442 C.3     1  UNL1        0.5251
     40 F          65.9725   96.3799   11.8591 F       1  UNL1       -0.1440
     41 F          66.0888   94.5038   12.8424 F       1  UNL1       -0.1440
     42 F          66.5888   95.4677   10.0459 F       1  UNL1       -0.1440
@<TRIPOS>BOND
     1    25    26    1
     2    26    13    1
     3    13    14   ar
     4    14    15   ar
     5    15    16    1
     6    15    17   ar
     7    17    18   ar
     8    18    19    1
     9    18    20   ar
    10    20     1    1
    11     1     2   ar
    12     2     3   ar
    13     3     4   ar
    14     4     5   ar
    15     5     6   ar
    16     5     7    1
    17     7    35    1
    18    35    36    1
    19    36    37    1
    20    37    38    1
    21    38    39    1
    22    39    40    1
    23    39    41    1
    24    39    42    1
    25     7     8   am
    26     8     9    2
    27     8    10    1
    28    10    11    1
    29    10    27    1
    30    27    28   ar
    31    28    29   ar
    32    29    30    1
    33    29    31   ar
    34    31    32   ar
    35    32    33    1
    36    32    34   ar
    37    10    12    1
    38    20    13   ar
    39     6     1   ar
    40    34    27   ar
    41    12     4    1
    42    16    21    1
    43    16    22    1
    44    19    23    1
    45    19    24    1
@<TRIPOS>MOLECULE
*****
 42 45 0 0 0
SMALL
GASTEIGER

@<TRIPOS>ATOM
      1 C          62.6555   84.2777   12.4978 C.ar    1  UNL1        0.0053
      2 C          61.9339   84.9289   11.3554 C.ar    1  UNL1        0.0033
      3 C          62.0391   86.4109   11.1490 C.ar    1  UNL1        0.0382
      4 C          62.8659   87.2417   12.0850 C.ar    1  UNL1        0.1529
      5 C          63.5875   86.5905   13.2275 C.ar    1  UNL1        0.0881
      6 C          63.4823   85.1085   13.4339 C.ar    1  UNL1        0.0181
      7 N          64.4143   87.4213   14.1635 N.am    1  UNL1       -0.2528
      8 C          64.5195   88.9033   13.9571 C.2     1  UNL1        0.2697
      9 O          65.3463   89.7341   14.8931 O.2     1  UNL1       -0.2704
     10 C          63.7979   89.5545   12.8146 C.3     1  UNL1        0.2199
     11 C          63.3038   90.6231   11.8851 C.3     1  UNL1        0.0579
     12 O          62.9711   88.7237   11.8786 O.3     1  UNL1       -0.4686
     13 C          62.8950   81.8565   11.5867 C.ar    1  UNL1        0.0645
     14 N          62.7899   80.3745   11.7931 N.ar    1  UNL1       -0.2183
     15 C          62.3400   79.8317   13.1171 C.ar    1  UNL1        0.2145
     16 N          62.2349   78.3497   13.3235 N.pl3   1  UNL1       -0.3274
     17 N          61.9954   80.7709   14.2347 N.ar    1  UNL1       -0.1995
     18 C          62.1005   82.2529   14.0283 C.ar    1  UNL1        0.1293
     19 N          61.7558   83.1922   15.1459 N.pl3   1  UNL1       -0.3425
     20 C          62.5504   82.7957   12.7043 C.ar    1  UNL1        0.0449
     21 H          62.4611   77.7333   12.5900 H       1  UNL1        0.1452
     22 H          61.9396   77.9934   14.1925 H       1  UNL1        0.1452
     23 H          61.4606   82.8359   16.0149 H       1  UNL1        0.1437
     24 H          61.8249   84.1649   15.0104 H       1  UNL1        0.1437
     25 C          64.7140   82.9960   10.1227 C.3     1  UNL1        0.0067
     26 C          63.3449   82.3993   10.2626 C.3     1  UNL1        0.0460
     27 C          64.4531   90.7564   13.4278 C.ar    1  UNL1        0.0264
     28 C          64.2270   91.0770   14.8756 C.ar    1  UNL1        0.0293
     29 C          64.8822   92.2790   15.4888 C.ar    1  UNL1        0.1422
     30 F          64.6560   92.5995   16.9367 F       1  UNL1       -0.2041
     31 C          65.7635   93.1603   14.6544 C.ar    1  UNL1        0.0592
     32 C          65.9897   92.8397   13.2066 C.ar    1  UNL1        0.1422
     33 F          66.8711   93.7210   12.3721 F       1  UNL1       -0.2041
     34 C          65.3345   91.6378   12.5933 C.ar    1  UNL1        0.0293
     35 C          65.1360   86.7701   15.3059 C.3     1  UNL1        0.1010
     36 C          64.5048   85.6207   16.0342 C.3     1  UNL1        0.0542
     37 C          63.4027   85.8719   17.0203 C.3     1  UNL1        0.1523
     38 O          62.4458   87.0063   16.8028 O.3     1  UNL1       -0.2784
     39 C          62.8333   88.4006   17.1977 C.3     1  UNL1        0.5251
     40 F          63.2208   89.7949   17.5925 F       1  UNL1       -0.1440
     41 F          63.2498   87.9019   18.5496 F       1  UNL1       -0.1440
     42 F          62.4168   88.8992   15.8457 F       1  UNL1       -0.1440
@<TRIPOS>BOND
     1    25    26    1
     2    26    13    1
     3    13    14   ar
     4    14    15   ar
     5    15    16    1
     6    15    17   ar
     7    17    18   ar
     8    18    19    1
     9    18    20   ar
    10    20     1    1
    11     1     2   ar
    12     2     3   ar
    13     3     4   ar
    14     4     5   ar
    15     5     6   ar
    16     5     7    1
    17     7    35    1
    18    35    36    1
    19    36    37    1
    20    37    38    1
    21    38    39    1
    22    39    40    1
    23    39    41    1
    24    39    42    1
    25     7     8   am
    26     8     9    2
    27     8    10    1
    28    10    11    1
    29    10    27    1
    30    27    28   ar
    31    28    29   ar
    32    29    30    1
    33    29    31   ar
    34    31    32   ar
    35    32    33    1
    36    32    34   ar
    37    10    12    1
    38    20    13   ar
    39     6     1   ar
    40    34    27   ar
    41    12     4    1
    42    16    21    1
    43    16    22    1
    44    19    23    1
    45    19    24    1
