@<TRIPOS>MOLECULE
*****
 39 43 0 0 0
SMALL
GASTEIGER

@<TRIPOS>ATOM
      1 N          63.1044   89.9480   15.5004 N.ar    1  UNL1       -0.1994
      2 N          64.4023   90.6670   15.2804 N.ar    1  UNL1       -0.1460
      3 C          64.4608   91.0885   13.8421 C.ar    1  UNL1        0.1860
      4 C          65.4999   91.8306   13.0550 C.ar    1  UNL1        0.0422
      5 C          65.2772   92.1142   11.5990 C.ar    1  UNL1        0.0603
      6 C          64.0154   91.6556   10.9300 C.ar    1  UNL1        0.2756
      7 O          63.7928   91.9391    9.4740 O.2     1  UNL1       -0.2655
      8 N          62.9763   90.9134   11.7171 N.ar    1  UNL1       -0.2229
      9 N          63.1990   90.6299   13.1731 N.ar    1  UNL1       -0.1765
     10 C          62.3607   89.9250   14.1980 C.ar    1  UNL1        0.3669
     11 O          61.0150   89.3059   13.9619 O.2     1  UNL1       -0.2429
     12 C          66.7617   92.2893   13.7240 C.ar    1  UNL1        0.0032
     13 C          66.7172   93.4070   14.7233 C.ar    1  UNL1        0.0010
     14 C          67.9790   93.8656   15.3923 C.ar    1  UNL1        0.0114
     15 C          69.2853   93.2065   15.0620 C.ar    1  UNL1        0.0577
     16 CL         70.5471   93.6651   15.7310 Cl      1  UNL1       -0.0822
     17 C          69.3298   92.0886   14.0627 C.ar    1  UNL1        0.0114
     18 C          68.0680   91.6300   13.3937 C.ar    1  UNL1        0.0010
     19 C          66.3164   92.8563   10.8120 C.ar    1  UNL1        0.0038
     20 C          67.3671   92.0988   10.0556 C.ar    1  UNL1        0.0205
     21 C          68.4062   92.8410    9.2686 C.ar    1  UNL1        0.0989
     22 N          68.3946   94.3407    9.2379 N.ar    1  UNL1       -0.2426
     23 C          67.3439   95.0981    9.9943 C.ar    1  UNL1        0.0946
     24 C          66.3047   94.3559   10.7813 C.ar    1  UNL1       -0.0025
     25 C          65.2540   95.1134   11.5377 C.3     1  UNL1        0.0327
     26 C          63.0085   87.9495   17.1578 C.3     1  UNL1        0.0286
     27 C          62.6331   89.3558   16.7955 C.3     1  UNL1        0.1324
     28 C          61.7145   90.4548   11.0481 C.3     1  UNL1        0.1568
     29 C          61.7148   89.2001   10.2260 C.ar    1  UNL1        0.0158
     30 C          62.7149   88.1185   10.5086 C.ar    1  UNL1        0.0003
     31 C          62.7151   86.8639    9.6866 C.ar    1  UNL1        0.0228
     32 C          61.7154   86.6909    8.5818 C.ar    1  UNL1        0.1522
     33 N          60.7153   87.7725    8.2991 N.ar    1  UNL1       -0.2460
     34 C          60.7150   89.0271    9.1212 C.ar    1  UNL1        0.0572
     35 C          59.7149   90.1088    8.8385 C.3     1  UNL1        0.0518
     36 C          61.7157   85.4362    7.7597 C.3     1  UNL1        0.4348
     37 F          61.7160   84.1815    6.9376 F       1  UNL1       -0.1644
     38 F          60.2503   85.6114    7.4917 F       1  UNL1       -0.1644
     39 F          63.1811   85.2610    8.0277 F       1  UNL1       -0.1644
@<TRIPOS>BOND
     1    26    27    1
     2    27     1    1
     3     1     2   ar
     4     2     3   ar
     5     3     4   ar
     6     4    12    1
     7    12    13   ar
     8    13    14   ar
     9    14    15   ar
    10    15    16    1
    11    15    17   ar
    12    17    18   ar
    13     4     5   ar
    14     5    19    1
    15    19    20   ar
    16    20    21   ar
    17    21    22   ar
    18    22    23   ar
    19    23    24   ar
    20    24    25    1
    21     5     6   ar
    22     6     7    2
    23     6     8   ar
    24     8    28    1
    25    28    29    1
    26    29    30   ar
    27    30    31   ar
    28    31    32   ar
    29    32    36    1
    30    36    37    1
    31    36    38    1
    32    36    39    1
    33    32    33   ar
    34    33    34   ar
    35    34    35    1
    36     8     9   ar
    37     9    10   ar
    38    10    11    2
    39    10     1   ar
    40     9     3   ar
    41    18    12   ar
    42    24    19   ar
    43    34    29   ar
@<TRIPOS>MOLECULE
*****
 39 43 0 0 0
SMALL
GASTEIGER

@<TRIPOS>ATOM
      1 N          63.7457   86.4002   15.5145 N.ar    1  UNL1       -0.1994
      2 N          63.5677   85.3710   14.4379 N.ar    1  UNL1       -0.1460
      3 C          63.1868   86.0834   13.1740 C.ar    1  UNL1        0.1860
      4 C          62.8848   85.5838   11.7923 C.ar    1  UNL1        0.0422
      5 C          62.5253   86.5537   10.7059 C.ar    1  UNL1        0.0603
      6 C          62.4679   88.0232   11.0014 C.ar    1  UNL1        0.2756
      7 O          62.1085   88.9931    9.9151 O.2     1  UNL1       -0.2655
      8 N          62.7699   88.5228   12.3832 N.ar    1  UNL1       -0.2229
      9 N          63.1294   87.5529   13.4695 N.ar    1  UNL1       -0.1765
     10 C          63.4748   87.7487   14.9159 C.ar    1  UNL1        0.3669
     11 O          63.5382   89.0624   15.6372 O.2     1  UNL1       -0.2429
     12 C          62.9422   84.1143   11.4969 C.ar    1  UNL1        0.0032
     13 C          62.0582   83.1632   12.2478 C.ar    1  UNL1        0.0010
     14 C          62.1157   81.6937   11.9524 C.ar    1  UNL1        0.0114
     15 C          63.0571   81.1753   10.9060 C.ar    1  UNL1        0.0577
     16 CL         63.1145   79.7058   10.6106 Cl      1  UNL1       -0.0822
     17 C          63.9411   82.1264   10.1550 C.ar    1  UNL1        0.0114
     18 C          63.8837   83.5959   10.4505 C.ar    1  UNL1        0.0010
     19 C          62.2233   86.0541    9.3242 C.ar    1  UNL1        0.0038
     20 C          63.3062   85.4197    8.5027 C.ar    1  UNL1        0.0205
     21 C          63.0042   84.9201    7.1210 C.ar    1  UNL1        0.0989
     22 N          61.6193   85.0549    6.5608 N.ar    1  UNL1       -0.2426
     23 C          60.5364   85.6893    7.3823 C.ar    1  UNL1        0.0946
     24 C          60.8385   86.1889    8.7640 C.ar    1  UNL1       -0.0025
     25 C          59.7556   86.8233    9.5856 C.3     1  UNL1        0.0327
     26 C          63.1384   86.3720   18.0404 C.3     1  UNL1        0.0286
     27 C          64.1276   86.1287   16.9395 C.3     1  UNL1        0.1324
     28 C          62.7125   89.9923   12.6786 C.3     1  UNL1        0.1568
     29 C          63.7417   90.9151   12.0961 C.ar    1  UNL1        0.0158
     30 C          63.6032   91.3962   10.6821 C.ar    1  UNL1        0.0003
     31 C          64.6323   92.3190   10.0997 C.ar    1  UNL1        0.0228
     32 C          65.7999   92.7608   10.9313 C.ar    1  UNL1        0.1522
     33 N          65.9384   92.2798   12.3453 N.ar    1  UNL1       -0.2460
     34 C          64.9093   91.3570   12.9277 C.ar    1  UNL1        0.0572
     35 C          65.0477   90.8759   14.3418 C.3     1  UNL1        0.0518
     36 C          66.8290   93.6837   10.3488 C.3     1  UNL1        0.4348
     37 F          67.8582   94.6065    9.7664 F       1  UNL1       -0.1644
     38 F          65.9735   94.8630   10.7055 F       1  UNL1       -0.1644
     39 F          67.6846   92.5044    9.9922 F       1  UNL1       -0.1644
@<TRIPOS>BOND
     1    26    27    1
     2    27     1    1
     3     1     2   ar
     4     2     3   ar
     5     3     4   ar
     6     4    12    1
     7    12    13   ar
     8    13    14   ar
     9    14    15   ar
    10    15    16    1
    11    15    17   ar
    12    17    18   ar
    13     4     5   ar
    14     5    19    1
    15    19    20   ar
    16    20    21   ar
    17    21    22   ar
    18    22    23   ar
    19    23    24   ar
    20    24    25    1
    21     5     6   ar
    22     6     7    2
    23     6     8   ar
    24     8    28    1
    25    28    29    1
    26    29    30   ar
    27    30    31   ar
    28    31    32   ar
    29    32    36    1
    30    36    37    1
    31    36    38    1
    32    36    39    1
    33    32    33   ar
    34    33    34   ar
    35    34    35    1
    36     8     9   ar
    37     9    10   ar
    38    10    11    2
    39    10     1   ar
    40     9     3   ar
    41    18    12   ar
    42    24    19   ar
    43    34    29   ar
@<TRIPOS>MOLECULE
*****
 39 43 0 0 0
SMALL
GASTEIGER

@<TRIPOS>ATOM
      1 N          60.8772   87.6422    9.0139 N.ar    1  UNL1       -0.1994
      2 N          61.3963   86.3146    9.4807 N.ar    1  UNL1       -0.1460
      3 C          62.0764   86.5212   10.8016 C.ar    1  UNL1        0.1860
      4 C          62.7728   85.5722   11.7313 C.ar    1  UNL1        0.0422
      5 C          63.3704   86.0785   13.0106 C.ar    1  UNL1        0.0603
      6 C          63.2716   87.5338   13.3602 C.ar    1  UNL1        0.2756
      7 O          63.8692   88.0402   14.6394 O.2     1  UNL1       -0.2655
      8 N          62.5752   88.4829   12.4304 N.ar    1  UNL1       -0.2229
      9 N          61.9775   87.9766   11.1512 N.ar    1  UNL1       -0.1765
     10 C          61.2364   88.6694   10.0463 C.ar    1  UNL1        0.3669
     11 O          60.9116   90.1325    9.9847 O.2     1  UNL1       -0.2429
     12 C          62.8716   84.1168   11.3817 C.ar    1  UNL1        0.0032
     13 C          62.1120   83.1002   12.1813 C.ar    1  UNL1        0.0010
     14 C          62.2108   81.6448   11.8318 C.ar    1  UNL1        0.0114
     15 C          63.0692   81.2061   10.6826 C.ar    1  UNL1        0.0577
     16 CL         63.1680   79.7508   10.3330 Cl      1  UNL1       -0.0822
     17 C          63.8288   82.2228    9.8829 C.ar    1  UNL1        0.0114
     18 C          63.7300   83.6782   10.2325 C.ar    1  UNL1        0.0010
     19 C          64.0669   85.1295   13.9402 C.ar    1  UNL1        0.0038
     20 C          65.5366   84.8720   13.7865 C.ar    1  UNL1        0.0205
     21 C          66.2330   83.9229   14.7161 C.ar    1  UNL1        0.0989
     22 N          65.4597   83.2314   15.7996 N.ar    1  UNL1       -0.2426
     23 C          63.9900   83.4889   15.9534 C.ar    1  UNL1        0.0946
     24 C          63.2936   84.4380   15.0236 C.ar    1  UNL1       -0.0025
     25 C          61.8239   84.6955   15.1774 C.3     1  UNL1        0.0327
     26 C          58.9793   87.0160    7.3538 C.3     1  UNL1        0.0286
     27 C          60.1301   87.8978    7.7385 C.3     1  UNL1        0.1324
     28 C          62.4763   89.9382   12.7800 C.3     1  UNL1        0.1568
     29 C          63.5120   90.9016   12.2803 C.ar    1  UNL1        0.0158
     30 C          63.5463   91.2799   10.8293 C.ar    1  UNL1        0.0003
     31 C          64.5819   92.2432   10.3297 C.ar    1  UNL1        0.0228
     32 C          65.5831   92.8281   11.2812 C.ar    1  UNL1        0.1522
     33 N          65.5488   92.4498   12.7323 N.ar    1  UNL1       -0.2460
     34 C          64.5132   91.4865   13.2318 C.ar    1  UNL1        0.0572
     35 C          64.4788   91.1082   14.6830 C.3     1  UNL1        0.0518
     36 C          66.6187   93.7915   10.7816 C.3     1  UNL1        0.4348
     37 F          67.6543   94.7548   10.2820 F       1  UNL1       -0.1644
     38 F          67.0579   92.7880    9.7568 F       1  UNL1       -0.1644
     39 F          66.1796   94.7950   11.8063 F       1  UNL1       -0.1644
@<TRIPOS>BOND
     1    26    27    1
     2    27     1    1
     3     1     2   ar
     4     2     3   ar
     5     3     4   ar
     6     4    12    1
     7    12    13   ar
     8    13    14   ar
     9    14    15   ar
    10    15    16    1
    11    15    17   ar
    12    17    18   ar
    13     4     5   ar
    14     5    19    1
    15    19    20   ar
    16    20    21   ar
    17    21    22   ar
    18    22    23   ar
    19    23    24   ar
    20    24    25    1
    21     5     6   ar
    22     6     7    2
    23     6     8   ar
    24     8    28    1
    25    28    29    1
    26    29    30   ar
    27    30    31   ar
    28    31    32   ar
    29    32    36    1
    30    36    37    1
    31    36    38    1
    32    36    39    1
    33    32    33   ar
    34    33    34   ar
    35    34    35    1
    36     8     9   ar
    37     9    10   ar
    38    10    11    2
    39    10     1   ar
    40     9     3   ar
    41    18    12   ar
    42    24    19   ar
    43    34    29   ar
@<TRIPOS>MOLECULE
*****
 39 43 0 0 0
SMALL
GASTEIGER

@<TRIPOS>ATOM
      1 N          60.9760   87.9848    9.0826 N.ar    1  UNL1       -0.1994
      2 N          61.4782   86.6358    9.5043 N.ar    1  UNL1       -0.1460
      3 C          62.1173   86.7800   10.8536 C.ar    1  UNL1        0.1860
      4 C          62.7830   85.7875   11.7602 C.ar    1  UNL1        0.0422
      5 C          63.3415   86.2332   13.0790 C.ar    1  UNL1        0.0603
      6 C          63.2343   87.6715   13.4913 C.ar    1  UNL1        0.2756
      7 O          63.7929   88.1173   14.8101 O.2     1  UNL1       -0.2655
      8 N          62.5686   88.6640   12.5847 N.ar    1  UNL1       -0.2229
      9 N          62.0101   88.2182   11.2659 N.ar    1  UNL1       -0.1765
     10 C          61.3048   88.9628   10.1714 C.ar    1  UNL1        0.3669
     11 O          60.9844   90.4282   10.1665 O.2     1  UNL1       -0.2429
     12 C          62.8901   84.3493   11.3479 C.ar    1  UNL1        0.0032
     13 C          62.1644   83.2905   12.1239 C.ar    1  UNL1        0.0010
     14 C          62.2716   81.8523   11.7116 C.ar    1  UNL1        0.0114
     15 C          63.1045   81.4728   10.5233 C.ar    1  UNL1        0.0577
     16 CL         63.2116   80.0346   10.1110 Cl      1  UNL1       -0.0822
     17 C          63.8302   82.5316    9.7471 C.ar    1  UNL1        0.0114
     18 C          63.7231   83.9698   10.1594 C.ar    1  UNL1        0.0010
     19 C          64.0072   85.2408   13.9856 C.ar    1  UNL1        0.0038
     20 C          65.4694   84.9449   13.8289 C.ar    1  UNL1        0.0205
     21 C          66.1351   83.9524   14.7354 C.ar    1  UNL1        0.0989
     22 N          65.3386   83.2558   15.7987 N.ar    1  UNL1       -0.2426
     23 C          63.8764   83.5517   15.9553 C.ar    1  UNL1        0.0946
     24 C          63.2107   84.5442   15.0487 C.ar    1  UNL1       -0.0025
     25 C          61.7486   84.8401   15.2054 C.3     1  UNL1        0.0327
     26 C          59.0325   87.5423    7.4163 C.3     1  UNL1        0.0286
     27 C          60.2692   88.3005    7.7978 C.3     1  UNL1        0.1324
     28 C          62.4614   90.1022   12.9970 C.3     1  UNL1        0.1568
     29 C          63.6819   90.8437   13.4563 C.ar    1  UNL1        0.0158
     30 C          64.0492   90.8556   14.9106 C.ar    1  UNL1        0.0003
     31 C          65.2696   91.5970   15.3698 C.ar    1  UNL1        0.0228
     32 C          66.1226   92.3266   14.3748 C.ar    1  UNL1        0.1522
     33 N          65.7552   92.3147   12.9205 N.ar    1  UNL1       -0.2460
     34 C          64.5349   91.5733   12.4613 C.ar    1  UNL1        0.0572
     35 C          64.1675   91.5614   11.0070 C.3     1  UNL1        0.0518
     36 C          67.3430   93.0681   14.8340 C.3     1  UNL1        0.4348
     37 F          68.5633   93.8096   15.2933 F       1  UNL1       -0.1644
     38 F          67.9293   91.7860   15.3462 F       1  UNL1       -0.1644
     39 F          66.7567   94.3502   14.3219 F       1  UNL1       -0.1644
@<TRIPOS>BOND
     1    26    27    1
     2    27     1    1
     3     1     2   ar
     4     2     3   ar
     5     3     4   ar
     6     4    12    1
     7    12    13   ar
     8    13    14   ar
     9    14    15   ar
    10    15    16    1
    11    15    17   ar
    12    17    18   ar
    13     4     5   ar
    14     5    19    1
    15    19    20   ar
    16    20    21   ar
    17    21    22   ar
    18    22    23   ar
    19    23    24   ar
    20    24    25    1
    21     5     6   ar
    22     6     7    2
    23     6     8   ar
    24     8    28    1
    25    28    29    1
    26    29    30   ar
    27    30    31   ar
    28    31    32   ar
    29    32    36    1
    30    36    37    1
    31    36    38    1
    32    36    39    1
    33    32    33   ar
    34    33    34   ar
    35    34    35    1
    36     8     9   ar
    37     9    10   ar
    38    10    11    2
    39    10     1   ar
    40     9     3   ar
    41    18    12   ar
    42    24    19   ar
    43    34    29   ar
