@<TRIPOS>MOLECULE
*****
 24 26 0 0 0
SMALL
GASTEIGER

@<TRIPOS>ATOM
      1 C          64.6050   90.5588   14.6142 C.ar    1  UNL1        0.0009
      2 C          63.8154   90.8764   15.8493 C.ar    1  UNL1       -0.0003
      3 C          63.2323   89.7665   16.6727 C.ar    1  UNL1       -0.0045
      4 C          63.4388   88.3389   16.2610 C.ar    1  UNL1       -0.0247
      5 C          64.2284   88.0213   15.0258 C.ar    1  UNL1       -0.0247
      6 C          64.8115   89.1312   14.2024 C.ar    1  UNL1       -0.0045
      7 C          64.2656   86.5299   14.8702 C.3     1  UNL1        0.0437
      8 C          63.4989   85.9257   16.0092 C.3     1  UNL1        0.0838
      9 C          62.9879   87.0438   16.8688 C.3     1  UNL1        0.0437
     10 C          63.6488   91.0048   11.8058 C.3     1  UNL1        0.0311
     11 C          64.7101   91.8917   12.3865 C.ar    1  UNL1       -0.0188
     12 C          65.2932   93.0016   11.5631 C.ar    1  UNL1        0.0164
     13 C          66.3544   93.8885   12.1438 C.ar    1  UNL1        0.0986
     14 N          66.8325   93.6655   13.5479 N.ar    1  UNL1       -0.2423
     15 C          66.2494   92.5556   14.3714 C.ar    1  UNL1        0.0985
     16 C          65.1882   91.6687   13.7907 C.ar    1  UNL1        0.0152
     17 N          63.2815   84.4607   16.2469 N.3     1  UNL1       -0.1841
     18 H          62.5643   84.3826   16.9680 H       1  UNL1        0.1484
     19 S          62.8564   83.5723   15.1154 S.O2    1  UNL1        0.0390
     20 O          64.0699   82.7173   15.3309 O.2     1  UNL1       -0.1576
     21 O          61.6430   84.4273   14.9000 O.2     1  UNL1       -0.1576
     22 C          62.4314   82.6840   13.9840 C.3     1  UNL1        0.1457
     23 C          61.6814   81.4160   14.2669 C.3     1  UNL1        0.0270
     24 C          62.7563   83.0635   12.5697 C.3     1  UNL1        0.0270
@<TRIPOS>BOND
     1    10    11    1
     2    11    12   ar
     3    12    13   ar
     4    13    14   ar
     5    14    15   ar
     6    15    16   ar
     7    16     1    1
     8     1     2   ar
     9     2     3   ar
    10     3     4   ar
    11     4     5   ar
    12     5     6   ar
    13     5     7    1
    14     7     8    1
    15     8    17    1
    16    17    19    1
    17    19    20    2
    18    19    21    2
    19    19    22    1
    20    22    23    1
    21    22    24    1
    22     8     9    1
    23    16    11   ar
    24     6     1   ar
    25     9     4    1
    26    17    18    1
@<TRIPOS>MOLECULE
*****
 24 26 0 0 0
SMALL
GASTEIGER

@<TRIPOS>ATOM
      1 C          65.2627   92.9017   11.1201 C.ar    1  UNL1        0.0009
      2 C          65.4923   92.5997   12.5713 C.ar    1  UNL1       -0.0003
      3 C          64.7801   91.4499   13.2198 C.ar    1  UNL1       -0.0045
      4 C          63.8384   90.6020   12.4172 C.ar    1  UNL1       -0.0247
      5 C          63.6088   90.9040   10.9660 C.ar    1  UNL1       -0.0247
      6 C          64.3209   92.0538   10.3174 C.ar    1  UNL1       -0.0045
      7 C          62.6297   89.9004   10.4330 C.3     1  UNL1        0.0437
      8 C          62.2541   88.9781   11.5547 C.3     1  UNL1        0.0838
      9 C          63.0011   89.4117   12.7811 C.3     1  UNL1        0.0437
     10 C          67.8300   92.4336    9.6403 C.3     1  UNL1        0.0311
     11 C          67.2585   93.8176    9.7316 C.ar    1  UNL1       -0.0188
     12 C          67.9707   94.9674    9.0830 C.ar    1  UNL1        0.0164
     13 C          67.3992   96.3513    9.1742 C.ar    1  UNL1        0.0986
     14 N          66.1155   96.5853    9.9141 N.ar    1  UNL1       -0.2423
     15 C          65.4034   95.4354   10.5628 C.ar    1  UNL1        0.0985
     16 C          65.9749   94.0516   10.4715 C.ar    1  UNL1        0.0152
     17 N          61.2992   87.8247   11.4658 N.3     1  UNL1       -0.1841
     18 H          60.3917   88.1689   11.7795 H       1  UNL1        0.1484
     19 S          61.0714   87.1394   10.1511 S.O2    1  UNL1        0.0390
     20 O          62.3605   86.3908   10.3180 O.2     1  UNL1       -0.1576
     21 O          59.7823   87.8879    9.9842 O.2     1  UNL1       -0.1576
     22 C          60.8437   86.4540    8.8364 C.3     1  UNL1        0.1457
     23 C          59.5242   86.5935    8.1366 C.3     1  UNL1        0.0270
     24 C          61.9352   85.6293    8.2215 C.3     1  UNL1        0.0270
@<TRIPOS>BOND
     1    10    11    1
     2    11    12   ar
     3    12    13   ar
     4    13    14   ar
     5    14    15   ar
     6    15    16   ar
     7    16     1    1
     8     1     2   ar
     9     2     3   ar
    10     3     4   ar
    11     4     5   ar
    12     5     6   ar
    13     5     7    1
    14     7     8    1
    15     8    17    1
    16    17    19    1
    17    19    20    2
    18    19    21    2
    19    19    22    1
    20    22    23    1
    21    22    24    1
    22     8     9    1
    23    16    11   ar
    24     6     1   ar
    25     9     4    1
    26    17    18    1
@<TRIPOS>MOLECULE
*****
 24 26 0 0 0
SMALL
GASTEIGER

@<TRIPOS>ATOM
      1 C          62.9446   85.3449   12.5389 C.ar    1  UNL1        0.0009
      2 C          62.2119   85.8539   11.3331 C.ar    1  UNL1       -0.0003
      3 C          62.1678   87.3259   11.0484 C.ar    1  UNL1       -0.0045
      4 C          62.8563   88.2890   11.9695 C.ar    1  UNL1       -0.0247
      5 C          63.5890   87.7800   13.1754 C.ar    1  UNL1       -0.0247
      6 C          63.6331   86.3079   13.4601 C.ar    1  UNL1       -0.0045
      7 C          64.1692   88.9598   13.8974 C.3     1  UNL1        0.0437
      8 C          63.7951   90.1980   13.1378 C.3     1  UNL1        0.0838
      9 C          62.9838   89.7834   11.9463 C.3     1  UNL1        0.0437
     10 C          63.9280   83.4400   10.4403 C.3     1  UNL1        0.0311
     11 C          63.4804   82.9203   11.7744 C.ar    1  UNL1       -0.0188
     12 C          63.5245   81.4483   12.0591 C.ar    1  UNL1        0.0164
     13 C          63.0770   80.9286   13.3932 C.ar    1  UNL1        0.0986
     14 N          62.5853   81.8811   14.4425 N.ar    1  UNL1       -0.2423
     15 C          62.5411   83.3532   14.1577 C.ar    1  UNL1        0.0985
     16 C          62.9887   83.8728   12.8237 C.ar    1  UNL1        0.0152
     17 N          64.1672   91.6039   13.5053 N.3     1  UNL1       -0.1841
     18 H          63.4557   91.9362   14.1563 H       1  UNL1        0.1484
     19 S          65.4980   91.8868   14.1369 S.O2    1  UNL1        0.0390
     20 O          66.1460   91.8586   12.7844 O.2     1  UNL1       -0.1576
     21 O          64.8501   91.9151   15.4895 O.2     1  UNL1       -0.1576
     22 C          66.8288   92.1697   14.7685 C.3     1  UNL1        0.1457
     23 C          68.0928   91.9033   14.0059 C.3     1  UNL1        0.0270
     24 C          66.8957   92.7190   16.1627 C.3     1  UNL1        0.0270
@<TRIPOS>BOND
     1    10    11    1
     2    11    12   ar
     3    12    13   ar
     4    13    14   ar
     5    14    15   ar
     6    15    16   ar
     7    16     1    1
     8     1     2   ar
     9     2     3   ar
    10     3     4   ar
    11     4     5   ar
    12     5     6   ar
    13     5     7    1
    14     7     8    1
    15     8    17    1
    16    17    19    1
    17    19    20    2
    18    19    21    2
    19    19    22    1
    20    22    23    1
    21    22    24    1
    22     8     9    1
    23    16    11   ar
    24     6     1   ar
    25     9     4    1
    26    17    18    1
@<TRIPOS>MOLECULE
*****
 24 26 0 0 0
SMALL
GASTEIGER

@<TRIPOS>ATOM
      1 C          65.5026   91.8791   13.0797 C.ar    1  UNL1        0.0009
      2 C          65.5896   92.5292   11.7307 C.ar    1  UNL1       -0.0003
      3 C          64.5809   92.1967   10.6715 C.ar    1  UNL1       -0.0045
      4 C          63.4851   91.2142   10.9614 C.ar    1  UNL1       -0.0247
      5 C          63.3982   90.5641   12.3103 C.ar    1  UNL1       -0.0247
      6 C          64.4069   90.8966   13.3695 C.ar    1  UNL1       -0.0045
      7 C          62.2157   89.6412   12.3047 C.3     1  UNL1        0.0437
      8 C          61.5719   89.7209   10.9523 C.3     1  UNL1        0.0838
      9 C          62.3564   90.6930   10.1220 C.3     1  UNL1        0.0437
     10 C          68.4333   91.6110   12.4969 C.3     1  UNL1        0.0311
     11 C          67.9767   92.0776   13.8475 C.ar    1  UNL1       -0.0188
     12 C          68.9855   92.4100   14.9067 C.ar    1  UNL1        0.0164
     13 C          68.5290   92.8765   16.2573 C.ar    1  UNL1        0.0986
     14 N          67.0637   93.0105   16.5486 N.ar    1  UNL1       -0.2423
     15 C          66.0549   92.6781   15.4894 C.ar    1  UNL1        0.0985
     16 C          66.5114   92.2116   14.1389 C.ar    1  UNL1        0.0152
     17 N          60.3568   88.9616   10.5081 N.3     1  UNL1       -0.1841
     18 H          59.7296   89.6382   10.0731 H       1  UNL1        0.1484
     19 S          60.4964   87.8194    9.5458 S.O2    1  UNL1        0.0390
     20 O          60.1086   88.7250    8.4147 O.2     1  UNL1       -0.1576
     21 O          60.8842   86.9138   10.6770 O.2     1  UNL1       -0.1576
     22 C          60.6360   86.6773    8.5836 C.3     1  UNL1        0.1457
     23 C          59.5103   86.3403    7.6511 C.3     1  UNL1        0.0270
     24 C          61.9012   85.8721    8.5537 C.3     1  UNL1        0.0270
@<TRIPOS>BOND
     1    10    11    1
     2    11    12   ar
     3    12    13   ar
     4    13    14   ar
     5    14    15   ar
     6    15    16   ar
     7    16     1    1
     8     1     2   ar
     9     2     3   ar
    10     3     4   ar
    11     4     5   ar
    12     5     6   ar
    13     5     7    1
    14     7     8    1
    15     8    17    1
    16    17    19    1
    17    19    20    2
    18    19    21    2
    19    19    22    1
    20    22    23    1
    21    22    24    1
    22     8     9    1
    23    16    11   ar
    24     6     1   ar
    25     9     4    1
    26    17    18    1
@<TRIPOS>MOLECULE
*****
 24 26 0 0 0
SMALL
GASTEIGER

@<TRIPOS>ATOM
      1 C          63.4555   84.7251   13.4948 C.ar    1  UNL1        0.0009
      2 C          64.2973   85.0959   14.6797 C.ar    1  UNL1       -0.0003
      3 C          64.6225   86.5354   14.9476 C.ar    1  UNL1       -0.0045
      4 C          64.1060   87.6042   14.0306 C.ar    1  UNL1       -0.0247
      5 C          63.2642   87.2335   12.8457 C.ar    1  UNL1       -0.0247
      6 C          62.9390   85.7939   12.5779 C.ar    1  UNL1       -0.0045
      7 C          62.8991   88.4962   12.1232 C.3     1  UNL1        0.0437
      8 C          63.5152   89.6475   12.8615 C.3     1  UNL1        0.0838
      9 C          64.2611   89.0962   14.0404 C.3     1  UNL1        0.0437
     10 C          64.4297   83.4100   10.9806 C.3     1  UNL1        0.0311
     11 C          63.6174   82.6279   11.9698 C.ar    1  UNL1       -0.0188
     12 C          63.2921   81.1884   11.7018 C.ar    1  UNL1        0.0164
     13 C          62.4797   80.4063   12.6910 C.ar    1  UNL1        0.0986
     14 N          61.9926   81.0638   13.9481 N.ar    1  UNL1       -0.2423
     15 C          62.3179   82.5034   14.2161 C.ar    1  UNL1        0.0985
     16 C          63.1302   83.2855   13.2269 C.ar    1  UNL1        0.0152
     17 N          63.4048   91.0958   12.4867 N.3     1  UNL1       -0.1841
     18 H          62.8684   91.5510   13.2253 H       1  UNL1        0.1484
     19 S          64.6450   91.9148   12.2847 S.O2    1  UNL1        0.0390
     20 O          64.5589   91.6804   10.8056 O.2     1  UNL1       -0.1576
     21 O          64.7312   92.1493   13.7637 O.2     1  UNL1       -0.1576
     22 C          65.8853   92.7339   12.0826 C.3     1  UNL1        0.1457
     23 C          66.4528   93.5289   13.2211 C.3     1  UNL1        0.0270
     24 C          66.5581   92.7580   10.7422 C.3     1  UNL1        0.0270
@<TRIPOS>BOND
     1    10    11    1
     2    11    12   ar
     3    12    13   ar
     4    13    14   ar
     5    14    15   ar
     6    15    16   ar
     7    16     1    1
     8     1     2   ar
     9     2     3   ar
    10     3     4   ar
    11     4     5   ar
    12     5     6   ar
    13     5     7    1
    14     7     8    1
    15     8    17    1
    16    17    19    1
    17    19    20    2
    18    19    21    2
    19    19    22    1
    20    22    23    1
    21    22    24    1
    22     8     9    1
    23    16    11   ar
    24     6     1   ar
    25     9     4    1
    26    17    18    1
@<TRIPOS>MOLECULE
*****
 24 26 0 0 0
SMALL
GASTEIGER

@<TRIPOS>ATOM
      1 C          63.6845   84.7832   13.1356 C.ar    1  UNL1        0.0009
      2 C          64.4113   84.9260   14.4399 C.ar    1  UNL1       -0.0003
      3 C          64.6843   86.2900   15.0009 C.ar    1  UNL1       -0.0045
      4 C          64.2306   87.5113   14.2575 C.ar    1  UNL1       -0.0247
      5 C          63.5038   87.3685   12.9531 C.ar    1  UNL1       -0.0247
      6 C          63.2308   86.0045   12.3922 C.ar    1  UNL1       -0.0045
      7 C          63.1801   88.7440   12.4500 C.3     1  UNL1        0.0437
      8 C          63.7067   89.7369   13.4433 C.3     1  UNL1        0.0838
      9 C          64.3560   88.9751   14.5605 C.3     1  UNL1        0.0437
     10 C          62.1477   82.7767   14.7518 C.3     1  UNL1        0.0311
     11 C          62.6430   82.4158   13.3827 C.ar    1  UNL1       -0.0188
     12 C          62.3699   81.0518   12.8217 C.ar    1  UNL1        0.0164
     13 C          62.8652   80.6909   11.4525 C.ar    1  UNL1        0.0986
     14 N          63.6336   81.6941   10.6444 N.ar    1  UNL1       -0.2423
     15 C          63.9067   83.0582   11.2055 C.ar    1  UNL1        0.0985
     16 C          63.4114   83.4191   12.5745 C.ar    1  UNL1        0.0152
     17 N          63.6024   91.2296   13.3380 N.3     1  UNL1       -0.1841
     18 H          63.2942   91.5683   14.2494 H       1  UNL1        0.1484
     19 S          64.8060   92.0407   12.9591 S.O2    1  UNL1        0.0390
     20 O          65.0921   92.2937   14.4096 O.2     1  UNL1       -0.1576
     21 O          64.5199   91.7876   11.5085 O.2     1  UNL1       -0.1576
     22 C          66.0096   92.8517   12.5801 C.3     1  UNL1        0.1457
     23 C          66.6212   93.7951   13.5731 C.3     1  UNL1        0.0270
     24 C          66.6016   92.7194   11.2083 C.3     1  UNL1        0.0270
@<TRIPOS>BOND
     1    10    11    1
     2    11    12   ar
     3    12    13   ar
     4    13    14   ar
     5    14    15   ar
     6    15    16   ar
     7    16     1    1
     8     1     2   ar
     9     2     3   ar
    10     3     4   ar
    11     4     5   ar
    12     5     6   ar
    13     5     7    1
    14     7     8    1
    15     8    17    1
    16    17    19    1
    17    19    20    2
    18    19    21    2
    19    19    22    1
    20    22    23    1
    21    22    24    1
    22     8     9    1
    23    16    11   ar
    24     6     1   ar
    25     9     4    1
    26    17    18    1
@<TRIPOS>MOLECULE
*****
 24 26 0 0 0
SMALL
GASTEIGER

@<TRIPOS>ATOM
      1 C          62.8910   85.4602   12.2734 C.ar    1  UNL1        0.0009
      2 C          62.1406   86.0526   11.1177 C.ar    1  UNL1       -0.0003
      3 C          62.0762   87.5417   10.9495 C.ar    1  UNL1       -0.0045
      4 C          62.7622   88.4384   11.9371 C.ar    1  UNL1       -0.0247
      5 C          63.5126   87.8460   13.0929 C.ar    1  UNL1       -0.0247
      6 C          63.5770   86.3569   13.2611 C.ar    1  UNL1       -0.0045
      7 C          64.0857   88.9730   13.8999 C.3     1  UNL1        0.0437
      8 C          63.6896   90.2620   13.2429 C.3     1  UNL1        0.0838
      9 C          62.8716   89.9316   12.0298 C.3     1  UNL1        0.0437
     10 C          62.2471   84.2214   14.9288 C.3     1  UNL1        0.0311
     11 C          62.6335   83.3516   13.7694 C.ar    1  UNL1       -0.0188
     12 C          62.6979   81.8625   13.9376 C.ar    1  UNL1        0.0164
     13 C          63.0842   80.9927   12.7782 C.ar    1  UNL1        0.0986
     14 N          63.4062   81.6121   11.4505 N.ar    1  UNL1       -0.2423
     15 C          63.3417   83.1013   11.2823 C.ar    1  UNL1        0.0985
     16 C          62.9554   83.9710   12.4417 C.ar    1  UNL1        0.0152
     17 N          64.0485   91.6395   13.7160 N.3     1  UNL1       -0.1841
     18 H          63.3957   91.8732   14.4641 H       1  UNL1        0.1484
     19 S          65.4260   91.9170   14.2409 S.O2    1  UNL1        0.0390
     20 O          64.8801   91.9880   15.6362 O.2     1  UNL1       -0.1576
     21 O          65.9719   91.8460   12.8455 O.2     1  UNL1       -0.1576
     22 C          66.8035   92.1945   14.7657 C.3     1  UNL1        0.1457
     23 C          66.9809   92.7678   16.1405 C.3     1  UNL1        0.0270
     24 C          68.0036   91.8988   13.9158 C.3     1  UNL1        0.0270
@<TRIPOS>BOND
     1    10    11    1
     2    11    12   ar
     3    12    13   ar
     4    13    14   ar
     5    14    15   ar
     6    15    16   ar
     7    16     1    1
     8     1     2   ar
     9     2     3   ar
    10     3     4   ar
    11     4     5   ar
    12     5     6   ar
    13     5     7    1
    14     7     8    1
    15     8    17    1
    16    17    19    1
    17    19    20    2
    18    19    21    2
    19    19    22    1
    20    22    23    1
    21    22    24    1
    22     8     9    1
    23    16    11   ar
    24     6     1   ar
    25     9     4    1
    26    17    18    1
@<TRIPOS>MOLECULE
*****
 24 26 0 0 0
SMALL
GASTEIGER

@<TRIPOS>ATOM
      1 C          63.4367   85.5812   15.0454 C.ar    1  UNL1        0.0009
      2 C          62.8049   85.7501   16.3953 C.ar    1  UNL1       -0.0003
      3 C          62.7648   87.1036   17.0405 C.ar    1  UNL1       -0.0045
      4 C          63.3563   88.2882   16.3357 C.ar    1  UNL1       -0.0247
      5 C          63.9881   88.1193   14.9858 C.ar    1  UNL1       -0.0247
      6 C          64.0282   86.7658   14.3406 C.ar    1  UNL1       -0.0045
      7 C          64.4860   89.4608   14.5360 C.3     1  UNL1        0.0437
      8 C          64.1621   90.4589   15.6079 C.3     1  UNL1        0.0838
      9 C          63.4639   89.7342   16.7202 C.3     1  UNL1        0.0437
     10 C          62.5241   85.2447   12.2074 C.3     1  UNL1        0.0311
     11 C          63.0206   84.0593   12.9812 C.ar    1  UNL1       -0.0188
     12 C          63.0607   82.7058   12.3359 C.ar    1  UNL1        0.0164
     13 C          63.5572   81.5205   13.1096 C.ar    1  UNL1        0.0986
     14 N          64.0135   81.6888   14.5286 N.ar    1  UNL1       -0.2423
     15 C          63.9733   83.0423   15.1739 C.ar    1  UNL1        0.0985
     16 C          63.4768   84.2276   14.4001 C.ar    1  UNL1        0.0152
     17 N          64.4804   91.9243   15.5735 N.3     1  UNL1       -0.1841
     18 H          64.2979   92.2874   16.5090 H       1  UNL1        0.1484
     19 S          65.8561   92.3842   15.1914 S.O2    1  UNL1        0.0390
     20 O          65.4748   92.3206   13.7421 O.2     1  UNL1       -0.1576
     21 O          66.2374   92.4477   16.6407 O.2     1  UNL1       -0.1576
     22 C          67.2318   92.8440   14.8093 C.3     1  UNL1        0.1457
     23 C          67.9998   93.7524   15.7232 C.3     1  UNL1        0.0270
     24 C          67.8396   92.3955   13.5134 C.3     1  UNL1        0.0270
@<TRIPOS>BOND
     1    10    11    1
     2    11    12   ar
     3    12    13   ar
     4    13    14   ar
     5    14    15   ar
     6    15    16   ar
     7    16     1    1
     8     1     2   ar
     9     2     3   ar
    10     3     4   ar
    11     4     5   ar
    12     5     6   ar
    13     5     7    1
    14     7     8    1
    15     8    17    1
    16    17    19    1
    17    19    20    2
    18    19    21    2
    19    19    22    1
    20    22    23    1
    21    22    24    1
    22     8     9    1
    23    16    11   ar
    24     6     1   ar
    25     9     4    1
    26    17    18    1
@<TRIPOS>MOLECULE
*****
 24 26 0 0 0
SMALL
GASTEIGER

@<TRIPOS>ATOM
      1 C          64.2687   89.6375   14.4042 C.ar    1  UNL1        0.0009
      2 C          63.7046   89.8747   15.7737 C.ar    1  UNL1       -0.0003
      3 C          63.2620   88.7136   16.6139 C.ar    1  UNL1       -0.0045
      4 C          63.3836   87.3154   16.0847 C.ar    1  UNL1       -0.0247
      5 C          63.9477   87.0781   14.7152 C.ar    1  UNL1       -0.0247
      6 C          64.3903   88.2392   13.8750 C.ar    1  UNL1       -0.0045
      7 C          63.9457   85.5995   14.4629 C.3     1  UNL1        0.0437
      8 C          63.3804   84.9229   15.6764 C.3     1  UNL1        0.0838
      9 C          63.0329   85.9833   16.6787 C.3     1  UNL1        0.0437
     10 C          66.6935   91.2196   15.1900 C.3     1  UNL1        0.0311
     11 C          65.9237   91.5896   13.9568 C.ar    1  UNL1       -0.0188
     12 C          66.3664   92.7507   13.1166 C.ar    1  UNL1        0.0164
     13 C          65.5966   93.1207   11.8834 C.ar    1  UNL1        0.0986
     14 N          64.3843   92.3296   11.4905 N.ar    1  UNL1       -0.2423
     15 C          63.9416   91.1685   12.3308 C.ar    1  UNL1        0.0985
     16 C          64.7114   90.7986   13.5639 C.ar    1  UNL1        0.0152
     17 N          63.1950   83.4452   15.8559 N.3     1  UNL1       -0.1841
     18 H          62.4210   83.3227   16.5088 H       1  UNL1        0.1484
     19 S          62.9017   82.5764   14.6688 S.O2    1  UNL1        0.0390
     20 O          61.5140   83.1414   14.5982 O.2     1  UNL1       -0.1576
     21 O          64.2895   82.0114   14.7395 O.2     1  UNL1       -0.1576
     22 C          62.6085   81.7077   13.4817 C.3     1  UNL1        0.1457
     23 C          62.9294   82.1934   12.0993 C.3     1  UNL1        0.0270
     24 C          61.9943   80.3532   13.6770 C.3     1  UNL1        0.0270
@<TRIPOS>BOND
     1    10    11    1
     2    11    12   ar
     3    12    13   ar
     4    13    14   ar
     5    14    15   ar
     6    15    16   ar
     7    16     1    1
     8     1     2   ar
     9     2     3   ar
    10     3     4   ar
    11     4     5   ar
    12     5     6   ar
    13     5     7    1
    14     7     8    1
    15     8    17    1
    16    17    19    1
    17    19    20    2
    18    19    21    2
    19    19    22    1
    20    22    23    1
    21    22    24    1
    22     8     9    1
    23    16    11   ar
    24     6     1   ar
    25     9     4    1
    26    17    18    1
