@<TRIPOS>MOLECULE
*****
 26 29 0 0 0
SMALL
GASTEIGER

@<TRIPOS>ATOM
      1 C          62.1580   89.4098   10.8314 C.ar    1  UNL1        0.2014
      2 N          61.5543   90.1436    9.6708 N.ar    1  UNL1       -0.2136
      3 C          60.6414   89.1975    8.9485 C.ar    1  UNL1        0.0999
      4 C          59.7793   89.3663    7.7327 C.ar    1  UNL1        0.0207
      5 C          58.9567   88.2166    7.2311 C.ar    1  UNL1        0.0016
      6 C          58.9963   86.8982    7.9454 C.ar    1  UNL1        0.0016
      7 C          59.8584   86.7294    9.1612 C.ar    1  UNL1        0.0188
      8 C          60.6810   87.8791    9.6627 C.ar    1  UNL1        0.0801
      9 N          61.6183   88.0103   10.8264 N.ar    1  UNL1       -0.2954
     10 C          65.0761   91.1089   13.8061 C.3     1  UNL1        0.0610
     11 C          64.7948   91.8425   12.5283 C.3     1  UNL1        0.0375
     12 C          63.8221   91.2762   11.5368 C.3     1  UNL1        0.0949
     13 N          63.1307   89.9762   11.8230 N.pl3   1  UNL1       -0.2794
     14 C          63.4120   89.2426   13.1007 C.3     1  UNL1        0.0949
     15 C          64.3846   89.8089   14.0922 C.3     1  UNL1        0.0375
     16 C          67.5219   91.6147   14.5217 C.3     1  UNL1        0.0896
     17 N          66.0487   91.6752   14.7976 N.3     1  UNL1       -0.2715
     18 C          65.5483   92.3021   16.0651 C.3     1  UNL1        0.0896
     19 C          61.9565   86.9314   11.8121 C.3     1  UNL1        0.1354
     20 C          62.6120   85.6662   11.3438 C.ar    1  UNL1        0.0006
     21 C          63.0902   84.6548   12.3431 C.ar    1  UNL1       -0.0001
     22 C          63.7457   83.3895   11.8747 C.ar    1  UNL1        0.0294
     23 C          63.9231   83.1356   10.4070 C.ar    1  UNL1        0.1401
     24 F          64.5787   81.8704    9.9387 F       1  UNL1       -0.2042
     25 C          63.4450   84.1470    9.4078 C.ar    1  UNL1        0.0294
     26 C          62.7894   85.4122    9.8761 C.ar    1  UNL1       -0.0001
@<TRIPOS>BOND
     1    16    17    1
     2    17    18    1
     3    17    10    1
     4    10    11    1
     5    11    12    1
     6    12    13    1
     7    13     1    1
     8     1     2   ar
     9     2     3   ar
    10     3     4   ar
    11     4     5   ar
    12     5     6   ar
    13     6     7   ar
    14     7     8   ar
    15     8     9   ar
    16     9    19    1
    17    19    20    1
    18    20    21   ar
    19    21    22   ar
    20    22    23   ar
    21    23    24    1
    22    23    25   ar
    23    25    26   ar
    24    13    14    1
    25    14    15    1
    26    15    10    1
    27     9     1   ar
    28    26    20   ar
    29     8     3   ar
@<TRIPOS>MOLECULE
*****
 26 29 0 0 0
SMALL
GASTEIGER

@<TRIPOS>ATOM
      1 C          63.2787   84.8612   13.2214 C.ar    1  UNL1        0.2014
      2 N          62.8776   83.8938   14.2952 N.ar    1  UNL1       -0.2136
      3 C          62.7204   82.5414   13.6656 C.ar    1  UNL1        0.0999
      4 C          62.3398   81.2071   14.2355 C.ar    1  UNL1        0.0207
      5 C          62.2630   80.0045   13.3424 C.ar    1  UNL1        0.0016
      6 C          62.5670   80.1361   11.8794 C.ar    1  UNL1        0.0016
      7 C          62.9477   81.4704   11.3095 C.ar    1  UNL1        0.0188
      8 C          63.0244   82.6730   12.2027 C.ar    1  UNL1        0.0801
      9 N          63.3694   84.1067   11.9281 N.ar    1  UNL1       -0.2954
     10 C          64.0709   89.2554   13.7813 C.3     1  UNL1        0.0610
     11 C          64.5505   88.2703   14.8058 C.3     1  UNL1        0.0375
     12 C          64.2864   86.8056   14.6191 C.3     1  UNL1        0.0949
     13 N          63.5428   86.3259   13.4080 N.pl3   1  UNL1       -0.2794
     14 C          63.0632   87.3110   12.3835 C.3     1  UNL1        0.0949
     15 C          63.3273   88.7757   12.5702 C.3     1  UNL1        0.0375
     16 C          64.5385   91.6038   12.7731 C.3     1  UNL1        0.0896
     17 N          64.3350   90.7201   13.9679 N.3     1  UNL1       -0.2715
     18 C          64.3956   91.3012   15.3494 C.3     1  UNL1        0.0896
     19 C          63.7401   84.6845   10.5944 C.3     1  UNL1        0.1354
     20 C          62.6678   85.1490    9.6540 C.ar    1  UNL1        0.0006
     21 C          61.4745   85.8878   10.1834 C.ar    1  UNL1       -0.0001
     22 C          60.4021   86.3523    9.2430 C.ar    1  UNL1        0.0294
     23 C          60.5231   86.0780    7.7733 C.ar    1  UNL1        0.1401
     24 F          59.4507   86.5425    6.8329 F       1  UNL1       -0.2042
     25 C          61.7164   85.3392    7.2439 C.ar    1  UNL1        0.0294
     26 C          62.7887   84.8747    8.1843 C.ar    1  UNL1       -0.0001
@<TRIPOS>BOND
     1    16    17    1
     2    17    18    1
     3    17    10    1
     4    10    11    1
     5    11    12    1
     6    12    13    1
     7    13     1    1
     8     1     2   ar
     9     2     3   ar
    10     3     4   ar
    11     4     5   ar
    12     5     6   ar
    13     6     7   ar
    14     7     8   ar
    15     8     9   ar
    16     9    19    1
    17    19    20    1
    18    20    21   ar
    19    21    22   ar
    20    22    23   ar
    21    23    24    1
    22    23    25   ar
    23    25    26   ar
    24    13    14    1
    25    14    15    1
    26    15    10    1
    27     9     1   ar
    28    26    20   ar
    29     8     3   ar
@<TRIPOS>MOLECULE
*****
 26 29 0 0 0
SMALL
GASTEIGER

@<TRIPOS>ATOM
      1 C          62.7707   86.5142   12.5877 C.ar    1  UNL1        0.2014
      2 N          63.7401   87.4345   13.2684 N.ar    1  UNL1       -0.2136
      3 C          63.5924   88.7969   12.6585 C.ar    1  UNL1        0.0999
      4 C          64.2867   90.0986   12.9295 C.ar    1  UNL1        0.0207
      5 C          63.9202   91.3220   12.1430 C.ar    1  UNL1        0.0016
      6 C          62.8594   91.2439   11.0854 C.ar    1  UNL1        0.0016
      7 C          62.1650   89.9422   10.8143 C.ar    1  UNL1        0.0188
      8 C          62.5315   88.7187   11.6009 C.ar    1  UNL1        0.0801
      9 N          62.0237   87.3080   11.5572 N.ar    1  UNL1       -0.2954
     10 C          62.2028   82.1404   13.4807 C.3     1  UNL1        0.0610
     11 C          62.5101   82.5866   12.0820 C.3     1  UNL1        0.0375
     12 C          62.6994   84.0445   11.7843 C.3     1  UNL1        0.0949
     13 N          62.5814   85.0563   12.8854 N.pl3   1  UNL1       -0.2794
     14 C          62.2740   84.6101   14.2841 C.3     1  UNL1        0.0949
     15 C          62.0847   83.1522   14.5817 C.3     1  UNL1        0.0375
     16 C          63.1724   79.7371   13.6642 C.3     1  UNL1        0.0896
     17 N          62.0135   80.6825   13.7783 N.3     1  UNL1       -0.2715
     18 C          60.6653   80.1700   14.1901 C.3     1  UNL1        0.0896
     19 C          60.9563   86.7831   10.6433 C.3     1  UNL1        0.1354
     20 C          61.3319   86.1569    9.3331 C.ar    1  UNL1        0.0006
     21 C          60.3166   86.0509    8.2340 C.ar    1  UNL1       -0.0001
     22 C          60.6922   85.4247    6.9238 C.ar    1  UNL1        0.0294
     23 C          62.0832   84.9044    6.7126 C.ar    1  UNL1        0.1401
     24 F          62.4587   84.2781    5.4024 F       1  UNL1       -0.2042
     25 C          63.0984   85.0103    7.8116 C.ar    1  UNL1        0.0294
     26 C          62.7228   85.6366    9.1219 C.ar    1  UNL1       -0.0001
@<TRIPOS>BOND
     1    16    17    1
     2    17    18    1
     3    17    10    1
     4    10    11    1
     5    11    12    1
     6    12    13    1
     7    13     1    1
     8     1     2   ar
     9     2     3   ar
    10     3     4   ar
    11     4     5   ar
    12     5     6   ar
    13     6     7   ar
    14     7     8   ar
    15     8     9   ar
    16     9    19    1
    17    19    20    1
    18    20    21   ar
    19    21    22   ar
    20    22    23   ar
    21    23    24    1
    22    23    25   ar
    23    25    26   ar
    24    13    14    1
    25    14    15    1
    26    15    10    1
    27     9     1   ar
    28    26    20   ar
    29     8     3   ar
@<TRIPOS>MOLECULE
*****
 26 29 0 0 0
SMALL
GASTEIGER

@<TRIPOS>ATOM
      1 C          63.7304   90.6618   12.6041 C.ar    1  UNL1        0.2014
      2 N          63.5025   90.7554   14.0837 N.ar    1  UNL1       -0.2136
      3 C          64.6338   91.5407   14.6783 C.ar    1  UNL1        0.0999
      4 C          64.9394   91.9497   16.0886 C.ar    1  UNL1        0.0207
      5 C          66.1722   92.7505   16.3868 C.ar    1  UNL1        0.0016
      6 C          67.0994   93.1422   15.2747 C.ar    1  UNL1        0.0016
      7 C          66.7937   92.7332   13.8643 C.ar    1  UNL1        0.0188
      8 C          65.5609   91.9325   13.5661 C.ar    1  UNL1        0.0801
      9 N          65.0026   91.3893   12.2842 N.ar    1  UNL1       -0.2954
     10 C          61.0656   88.5665    9.6446 C.3     1  UNL1        0.0610
     11 C          61.1273   90.0650    9.6686 C.3     1  UNL1        0.0375
     12 C          62.0155   90.7634   10.6550 C.3     1  UNL1        0.0949
     13 N          62.8421   89.9634   11.6176 N.pl3   1  UNL1       -0.2794
     14 C          62.7805   88.4648   11.5937 C.3     1  UNL1        0.0949
     15 C          61.8922   87.7664   10.6072 C.3     1  UNL1        0.0375
     16 C          59.3831   88.6666    7.6675 C.3     1  UNL1        0.0896
     17 N          60.1774   87.8680    8.6581 N.3     1  UNL1       -0.2715
     18 C          60.0833   86.3710    8.6623 C.3     1  UNL1        0.0896
     19 C          65.6099   91.5460   10.9216 C.3     1  UNL1        0.1354
     20 C          66.1648   92.8729   10.4959 C.ar    1  UNL1        0.0006
     21 C          65.4140   94.1341   10.8057 C.ar    1  UNL1       -0.0001
     22 C          65.9689   95.4611   10.3799 C.ar    1  UNL1        0.0294
     23 C          67.2745   95.5269    9.6444 C.ar    1  UNL1        0.1401
     24 F          67.8294   96.8539    9.2187 F       1  UNL1       -0.2042
     25 C          68.0252   94.2658    9.3346 C.ar    1  UNL1        0.0294
     26 C          67.4704   92.9388    9.7603 C.ar    1  UNL1       -0.0001
@<TRIPOS>BOND
     1    16    17    1
     2    17    18    1
     3    17    10    1
     4    10    11    1
     5    11    12    1
     6    12    13    1
     7    13     1    1
     8     1     2   ar
     9     2     3   ar
    10     3     4   ar
    11     4     5   ar
    12     5     6   ar
    13     6     7   ar
    14     7     8   ar
    15     8     9   ar
    16     9    19    1
    17    19    20    1
    18    20    21   ar
    19    21    22   ar
    20    22    23   ar
    21    23    24    1
    22    23    25   ar
    23    25    26   ar
    24    13    14    1
    25    14    15    1
    26    15    10    1
    27     9     1   ar
    28    26    20   ar
    29     8     3   ar
@<TRIPOS>MOLECULE
*****
 26 29 0 0 0
SMALL
GASTEIGER

@<TRIPOS>ATOM
      1 C          62.2659   88.7459   11.0394 C.ar    1  UNL1        0.2014
      2 N          61.1080   89.3513   10.3026 N.ar    1  UNL1       -0.2136
      3 C          60.5366   88.3025    9.3951 C.ar    1  UNL1        0.0999
      4 C          59.3875   88.3271    8.4313 C.ar    1  UNL1        0.0207
      5 C          59.0431   87.0981    7.6434 C.ar    1  UNL1        0.0016
      6 C          59.8479   85.8445    7.8192 C.ar    1  UNL1        0.0016
      7 C          60.9970   85.8199    8.7830 C.ar    1  UNL1        0.0188
      8 C          61.3413   87.0489    9.5709 C.ar    1  UNL1        0.0801
      9 N          62.4101   87.3230   10.5871 N.ar    1  UNL1       -0.2954
     10 C          64.8528   90.8321   14.0735 C.3     1  UNL1        0.0610
     11 C          64.4254   91.5533   12.8296 C.3     1  UNL1        0.0375
     12 C          63.5631   90.8579   11.8183 C.3     1  UNL1        0.0949
     13 N          63.1282   89.4413   12.0507 N.pl3   1  UNL1       -0.2794
     14 C          63.5556   88.7201   13.2945 C.3     1  UNL1        0.0949
     15 C          64.4179   89.4155   14.3059 C.3     1  UNL1        0.0375
     16 C          67.2010   91.5877   14.8889 C.3     1  UNL1        0.0896
     17 N          65.7151   91.5275   15.0848 N.3     1  UNL1       -0.2715
     18 C          65.0915   92.1626   16.2921 C.3     1  UNL1        0.0896
     19 C          63.4419   86.3456   11.0669 C.3     1  UNL1        0.1354
     20 C          63.0300   85.1693   11.9015 C.ar    1  UNL1        0.0006
     21 C          62.8263   83.8289   11.2597 C.ar    1  UNL1       -0.0001
     22 C          62.4144   82.6525   12.0943 C.ar    1  UNL1        0.0294
     23 C          62.2063   82.8166   13.5707 C.ar    1  UNL1        0.1401
     24 F          61.7944   81.6403   14.4053 F       1  UNL1       -0.2042
     25 C          62.4100   84.1570   14.2125 C.ar    1  UNL1        0.0294
     26 C          62.8219   85.3333   13.3779 C.ar    1  UNL1       -0.0001
@<TRIPOS>BOND
     1    16    17    1
     2    17    18    1
     3    17    10    1
     4    10    11    1
     5    11    12    1
     6    12    13    1
     7    13     1    1
     8     1     2   ar
     9     2     3   ar
    10     3     4   ar
    11     4     5   ar
    12     5     6   ar
    13     6     7   ar
    14     7     8   ar
    15     8     9   ar
    16     9    19    1
    17    19    20    1
    18    20    21   ar
    19    21    22   ar
    20    22    23   ar
    21    23    24    1
    22    23    25   ar
    23    25    26   ar
    24    13    14    1
    25    14    15    1
    26    15    10    1
    27     9     1   ar
    28    26    20   ar
    29     8     3   ar
@<TRIPOS>MOLECULE
*****
 26 29 0 0 0
SMALL
GASTEIGER

@<TRIPOS>ATOM
      1 C          62.6529   93.9813    1.2988 C.ar    1  UNL1        0.2014
      2 N          63.7539   94.9285    1.6739 N.ar    1  UNL1       -0.2136
      3 C          64.3812   95.4343    0.4087 C.ar    1  UNL1        0.0999
      4 C          65.5098   96.3908    0.1607 C.ar    1  UNL1        0.0207
      5 C          65.9251   96.7126   -1.2442 C.ar    1  UNL1        0.0016
      6 C          65.2118   96.0781   -2.4012 C.ar    1  UNL1        0.0016
      7 C          64.0832   95.1216   -2.1532 C.ar    1  UNL1        0.0188
      8 C          63.6680   94.7998   -0.7482 C.ar    1  UNL1        0.0801
      9 N          62.5998   93.9017   -0.1981 N.ar    1  UNL1       -0.2954
     10 C          59.9789   91.7672    4.1619 C.3     1  UNL1        0.0610
     11 C          61.4215   91.3783    4.0297 C.3     1  UNL1        0.0375
     12 C          62.3128   92.1163    3.0754 C.3     1  UNL1        0.0949
     13 N          61.7616   93.2433    2.2532 N.pl3   1  UNL1       -0.2794
     14 C          60.3189   93.6321    2.3853 C.3     1  UNL1        0.0949
     15 C          59.4276   92.8941    3.3397 C.3     1  UNL1        0.0375
     16 C          59.6626   89.9797    6.0207 C.3     1  UNL1        0.0896
     17 N          59.0875   91.0291    5.1162 N.3     1  UNL1       -0.2715
     18 C          57.6210   91.3404    5.1662 C.3     1  UNL1        0.0896
     19 C          61.6460   93.0702   -1.0035 C.3     1  UNL1        0.1354
     20 C          60.1922   93.4357   -1.0562 C.ar    1  UNL1        0.0006
     21 C          59.7851   94.8638   -1.2679 C.ar    1  UNL1       -0.0001
     22 C          58.3313   95.2294   -1.3206 C.ar    1  UNL1        0.0294
     23 C          57.2846   94.1668   -1.1615 C.ar    1  UNL1        0.1401
     24 F          55.8307   94.5324   -1.2141 F       1  UNL1       -0.2042
     25 C          57.6916   92.7387   -0.9498 C.ar    1  UNL1        0.0294
     26 C          59.1455   92.3731   -0.8971 C.ar    1  UNL1       -0.0001
@<TRIPOS>BOND
     1    16    17    1
     2    17    18    1
     3    17    10    1
     4    10    11    1
     5    11    12    1
     6    12    13    1
     7    13     1    1
     8     1     2   ar
     9     2     3   ar
    10     3     4   ar
    11     4     5   ar
    12     5     6   ar
    13     6     7   ar
    14     7     8   ar
    15     8     9   ar
    16     9    19    1
    17    19    20    1
    18    20    21   ar
    19    21    22   ar
    20    22    23   ar
    21    23    24    1
    22    23    25   ar
    23    25    26   ar
    24    13    14    1
    25    14    15    1
    26    15    10    1
    27     9     1   ar
    28    26    20   ar
    29     8     3   ar
@<TRIPOS>MOLECULE
*****
 26 29 0 0 0
SMALL
GASTEIGER

@<TRIPOS>ATOM
      1 C          64.7084   90.9436   12.9156 C.ar    1  UNL1        0.2014
      2 N          65.4409   90.3986   14.1058 N.ar    1  UNL1       -0.2136
      3 C          66.3129   91.4895   14.6529 C.ar    1  UNL1        0.0999
      4 C          67.2582   91.5302   15.8169 C.ar    1  UNL1        0.0207
      5 C          68.0099   92.7901   16.1288 C.ar    1  UNL1        0.0016
      6 C          67.8164   94.0094   15.2768 C.ar    1  UNL1        0.0016
      7 C          66.8712   93.9688   14.1129 C.ar    1  UNL1        0.0188
      8 C          66.1194   92.7088   13.8009 C.ar    1  UNL1        0.0801
      9 N          65.1278   92.3714   12.7272 N.ar    1  UNL1       -0.2954
     10 C          61.7691   88.6908   10.3592 C.3     1  UNL1        0.0610
     11 C          62.3537   88.0422   11.5788 C.3     1  UNL1        0.0375
     12 C          63.3335   88.7931   12.4309 C.3     1  UNL1        0.0949
     13 N          63.7287   90.1926   12.0635 N.pl3   1  UNL1       -0.2794
     14 C          63.1440   90.8413   10.8439 C.3     1  UNL1        0.0949
     15 C          62.1642   90.0903    9.9918 C.3     1  UNL1        0.0375
     16 C          60.7087   86.4448    9.5970 C.3     1  UNL1        0.0896
     17 N          60.7893   87.9399    9.5071 N.3     1  UNL1       -0.2715
     18 C          59.8901   88.6840    8.5650 C.3     1  UNL1        0.0896
     19 C          64.6410   93.2990   11.6536 C.3     1  UNL1        0.1354
     20 C          65.6238   93.9758   10.7448 C.ar    1  UNL1        0.0006
     21 C          66.6923   93.1725   10.0643 C.ar    1  UNL1       -0.0001
     22 C          67.6752   93.8493    9.1554 C.ar    1  UNL1        0.0294
     23 C          67.5895   95.3294    8.9271 C.ar    1  UNL1        0.1401
     24 F          68.5723   96.0061    8.0183 F       1  UNL1       -0.2042
     25 C          66.5210   96.1326    9.6076 C.ar    1  UNL1        0.0294
     26 C          65.5381   95.4558   10.5165 C.ar    1  UNL1       -0.0001
@<TRIPOS>BOND
     1    16    17    1
     2    17    18    1
     3    17    10    1
     4    10    11    1
     5    11    12    1
     6    12    13    1
     7    13     1    1
     8     1     2   ar
     9     2     3   ar
    10     3     4   ar
    11     4     5   ar
    12     5     6   ar
    13     6     7   ar
    14     7     8   ar
    15     8     9   ar
    16     9    19    1
    17    19    20    1
    18    20    21   ar
    19    21    22   ar
    20    22    23   ar
    21    23    24    1
    22    23    25   ar
    23    25    26   ar
    24    13    14    1
    25    14    15    1
    26    15    10    1
    27     9     1   ar
    28    26    20   ar
    29     8     3   ar
@<TRIPOS>MOLECULE
*****
 26 29 0 0 0
SMALL
GASTEIGER

@<TRIPOS>ATOM
      1 C          63.8837   90.6037   12.5189 C.ar    1  UNL1        0.2014
      2 N          62.8621   91.2994   11.6690 N.ar    1  UNL1       -0.2136
      3 C          61.8404   90.2848   11.2484 C.ar    1  UNL1        0.0999
      4 C          60.6053   90.3946   10.4044 C.ar    1  UNL1        0.0207
      5 C          59.7603   89.1816   10.1504 C.ar    1  UNL1        0.0016
      6 C          60.1505   87.8588   10.7404 C.ar    1  UNL1        0.0016
      7 C          61.3856   87.7491   11.5843 C.ar    1  UNL1        0.0188
      8 C          62.2306   88.9621   11.8383 C.ar    1  UNL1        0.0801
      9 N          63.4934   89.1592   12.6235 N.ar    1  UNL1       -0.2954
     10 C          67.4866   92.5147   14.4207 C.3     1  UNL1        0.0610
     11 C          67.3758   92.4445   12.9265 C.3     1  UNL1        0.0375
     12 C          66.1748   91.8076   12.2925 C.3     1  UNL1        0.0949
     13 N          65.0847   91.2407   13.1528 N.pl3   1  UNL1       -0.2794
     14 C          65.1955   91.3108   14.6470 C.3     1  UNL1        0.0949
     15 C          66.3965   91.9478   15.2810 C.3     1  UNL1        0.0375
     16 C          70.0660   92.7058   14.6659 C.3     1  UNL1        0.0896
     17 N          68.6876   93.1517   15.0546 N.3     1  UNL1       -0.2715
     18 C          68.5102   94.2346   16.0773 C.3     1  UNL1        0.0896
     19 C          64.2356   88.0980   13.3805 C.3     1  UNL1        0.1354
     20 C          63.8309   87.7557   14.7837 C.ar    1  UNL1        0.0006
     21 C          63.8398   86.3266   15.2394 C.ar    1  UNL1       -0.0001
     22 C          63.4351   85.9843   16.6427 C.ar    1  UNL1        0.0294
     23 C          63.0216   87.0711   17.5902 C.ar    1  UNL1        0.1401
     24 F          62.6170   86.7288   18.9935 F       1  UNL1       -0.2042
     25 C          63.0128   88.5001   17.1346 C.ar    1  UNL1        0.0294
     26 C          63.4174   88.8425   15.7313 C.ar    1  UNL1       -0.0001
@<TRIPOS>BOND
     1    16    17    1
     2    17    18    1
     3    17    10    1
     4    10    11    1
     5    11    12    1
     6    12    13    1
     7    13     1    1
     8     1     2   ar
     9     2     3   ar
    10     3     4   ar
    11     4     5   ar
    12     5     6   ar
    13     6     7   ar
    14     7     8   ar
    15     8     9   ar
    16     9    19    1
    17    19    20    1
    18    20    21   ar
    19    21    22   ar
    20    22    23   ar
    21    23    24    1
    22    23    25   ar
    23    25    26   ar
    24    13    14    1
    25    14    15    1
    26    15    10    1
    27     9     1   ar
    28    26    20   ar
    29     8     3   ar
@<TRIPOS>MOLECULE
*****
 26 29 0 0 0
SMALL
GASTEIGER

@<TRIPOS>ATOM
      1 C          62.2440   89.2831   11.2561 C.ar    1  UNL1        0.2014
      2 N          61.0678   89.8026   10.4837 N.ar    1  UNL1       -0.2136
      3 C          60.5598   88.6934    9.6109 C.ar    1  UNL1        0.0999
      4 C          59.4235   88.6250    8.6342 C.ar    1  UNL1        0.0207
      5 C          59.1495   87.3516    7.8904 C.ar    1  UNL1        0.0016
      6 C          60.0118   86.1465    8.1234 C.ar    1  UNL1        0.0016
      7 C          61.1481   86.2149    9.1002 C.ar    1  UNL1        0.0188
      8 C          61.4221   87.4884    9.8439 C.ar    1  UNL1        0.0801
      9 N          62.4629   87.8528   10.8607 N.ar    1  UNL1       -0.2954
     10 C          64.6868   91.6072   14.2362 C.3     1  UNL1        0.0610
     11 C          63.7572   90.5284   14.7071 C.3     1  UNL1        0.0375
     12 C          62.9429   89.7536   13.7137 C.3     1  UNL1        0.0949
     13 N          63.0582   90.0578   12.2495 N.pl3   1  UNL1       -0.2794
     14 C          63.9879   91.1367   11.7786 C.3     1  UNL1        0.0949
     15 C          64.8021   91.9114   12.7719 C.3     1  UNL1        0.0375
     16 C          65.0872   92.4210   16.6708 C.3     1  UNL1        0.0896
     17 N          65.5010   92.3820   15.2296 N.3     1  UNL1       -0.2715
     18 C          66.7291   93.1176   14.7817 C.3     1  UNL1        0.0896
     19 C          63.5346   86.9461   11.3893 C.3     1  UNL1        0.1354
     20 C          63.2710   86.0985   12.5983 C.ar    1  UNL1        0.0006
     21 C          62.2937   84.9632   12.5198 C.ar    1  UNL1       -0.0001
     22 C          62.0300   84.1155   13.7289 C.ar    1  UNL1        0.0294
     23 C          62.7436   84.4032   15.0166 C.ar    1  UNL1        0.1401
     24 F          62.4800   83.5555   16.2257 F       1  UNL1       -0.2042
     25 C          63.7208   85.5384   15.0951 C.ar    1  UNL1        0.0294
     26 C          63.9845   86.3861   13.8860 C.ar    1  UNL1       -0.0001
@<TRIPOS>BOND
     1    16    17    1
     2    17    18    1
     3    17    10    1
     4    10    11    1
     5    11    12    1
     6    12    13    1
     7    13     1    1
     8     1     2   ar
     9     2     3   ar
    10     3     4   ar
    11     4     5   ar
    12     5     6   ar
    13     6     7   ar
    14     7     8   ar
    15     8     9   ar
    16     9    19    1
    17    19    20    1
    18    20    21   ar
    19    21    22   ar
    20    22    23   ar
    21    23    24    1
    22    23    25   ar
    23    25    26   ar
    24    13    14    1
    25    14    15    1
    26    15    10    1
    27     9     1   ar
    28    26    20   ar
    29     8     3   ar
