@<TRIPOS>MOLECULE
*****
 29 32 0 0 0
SMALL
GASTEIGER

@<TRIPOS>ATOM
      1 C          62.3281   88.2899   10.8929 C.ar    1  UNL1        0.1311
      2 C          62.3324   89.5581   10.0919 C.ar    1  UNL1        0.0339
      3 C          62.9820   90.7920   10.6446 C.ar    1  UNL1        0.0027
      4 C          63.6274   90.7577   11.9982 C.ar    1  UNL1        0.0283
      5 C          63.6231   89.4895   12.7992 C.ar    1  UNL1        0.2196
      6 F          64.2684   89.4552   14.1529 F       1  UNL1       -0.1835
      7 N          62.9735   88.2556   12.2466 N.ar    1  UNL1       -0.2035
      8 N          61.6785   87.0559   10.3403 N.pl3   1  UNL1       -0.3143
      9 H          61.3980   87.0277    9.3971 H       1  UNL1        0.1485
     10 C          61.4562   85.8650   11.2248 C.3     1  UNL1        0.1200
     11 C          62.9737   84.3502   12.6920 C.ar    1  UNL1        0.2224
     12 N          64.0319   83.2933   12.8066 N.ar    1  UNL1       -0.2104
     13 C          64.6307   82.6941   11.5687 C.ar    1  UNL1        0.1020
     14 C          64.1713   83.1520   10.2161 C.ar    1  UNL1        0.0206
     15 C          63.1131   84.2089   10.1015 C.ar    1  UNL1        0.0036
     16 C          62.5144   84.8081   11.3395 C.ar    1  UNL1        0.0506
     17 C          62.3499   84.1632   15.2071 C.3     1  UNL1        0.2542
     18 O          62.3750   84.9494   13.9300 O.3     1  UNL1       -0.4563
     19 C          64.2770   91.9917   12.5509 C.3     1  UNL1        0.0582
     20 C          65.7727   92.0950   12.5978 C.ar    1  UNL1        0.0044
     21 C          66.6951   92.0786   11.4150 C.ar    1  UNL1        0.0966
     22 N          68.1011   92.2063   11.9219 N.ar    1  UNL1       -0.2273
     23 C          68.0476   92.3015   13.4180 C.ar    1  UNL1        0.1402
     24 N          69.1233   92.4419   14.4538 N.ar    1  UNL1       -0.3374
     25 C          68.7600   92.5136   15.9074 C.ar    1  UNL1        0.0735
     26 C          67.3210   92.4447   16.3250 C.ar    1  UNL1        0.0186
     27 C          66.2453   92.3043   15.2892 C.ar    1  UNL1        0.0043
     28 C          66.6086   92.2327   13.8357 C.ar    1  UNL1        0.0318
     29 H          70.0678   92.4871   14.1797 H       1  UNL1        0.1674
@<TRIPOS>BOND
     1    17    18    1
     2    18    11    1
     3    11    12   ar
     4    12    13   ar
     5    13    14   ar
     6    14    15   ar
     7    15    16   ar
     8    16    10    1
     9    10     8    1
    10     8     1    1
    11     1     2   ar
    12     2     3   ar
    13     3     4   ar
    14     4    19    1
    15    19    20    1
    16    20    21   ar
    17    21    22   ar
    18    22    23   ar
    19    23    24   ar
    20    24    25   ar
    21    25    26   ar
    22    26    27   ar
    23    27    28   ar
    24     4     5   ar
    25     5     6    1
    26     5     7   ar
    27    16    11   ar
    28     7     1   ar
    29    28    20   ar
    30    28    23    1
    31     8     9    1
    32    24    29    1
@<TRIPOS>MOLECULE
*****
 29 32 0 0 0
SMALL
GASTEIGER

@<TRIPOS>ATOM
      1 C          62.6787   86.9766   11.8520 C.ar    1  UNL1        0.1311
      2 C          62.1711   88.0659   10.9544 C.ar    1  UNL1        0.0339
      3 C          62.4765   89.5003   11.2694 C.ar    1  UNL1        0.0027
      4 C          63.2893   89.8454   12.4819 C.ar    1  UNL1        0.0283
      5 C          63.7968   88.7560   13.3795 C.ar    1  UNL1        0.2196
      6 F          64.6096   89.1011   14.5920 F       1  UNL1       -0.1835
      7 N          63.4915   87.3217   13.0645 N.ar    1  UNL1       -0.2035
      8 N          62.3734   85.5421   11.5371 N.pl3   1  UNL1       -0.3143
      9 H          61.5028   85.2983   11.1473 H       1  UNL1        0.1485
     10 C          63.3944   84.4792   11.8161 C.3     1  UNL1        0.1200
     11 C          62.4474   83.2457   13.8974 C.ar    1  UNL1        0.2224
     12 N          62.0387   81.9736   14.5790 N.ar    1  UNL1       -0.2104
     13 C          62.1683   80.6629   13.8612 C.ar    1  UNL1        0.1020
     14 C          62.7066   80.6244   12.4616 C.ar    1  UNL1        0.0206
     15 C          63.1153   81.8965   11.7800 C.ar    1  UNL1        0.0036
     16 C          62.9857   83.2072   12.4978 C.ar    1  UNL1        0.0506
     17 C          63.3119   84.9337   15.6732 C.3     1  UNL1        0.2542
     18 O          62.3178   84.5564   14.6153 O.3     1  UNL1       -0.4563
     19 C          63.5946   91.2799   12.7968 C.3     1  UNL1        0.0582
     20 C          65.0020   91.7879   12.6910 C.ar    1  UNL1        0.0044
     21 C          65.7484   92.0583   11.4184 C.ar    1  UNL1        0.0966
     22 N          67.1178   92.5521   11.7802 N.ar    1  UNL1       -0.2273
     23 C          67.2177   92.5868   13.2765 C.ar    1  UNL1        0.1402
     24 N          68.3305   92.9875   14.1990 N.ar    1  UNL1       -0.3374
     25 C          68.1356   92.9158   15.6846 C.ar    1  UNL1        0.0735
     26 C          66.8279   92.4435   16.2475 C.ar    1  UNL1        0.0186
     27 C          65.7152   92.0428   15.3249 C.ar    1  UNL1        0.0043
     28 C          65.9101   92.1145   13.8394 C.ar    1  UNL1        0.0318
     29 H          69.1888   93.2975   13.8295 H       1  UNL1        0.1674
@<TRIPOS>BOND
     1    17    18    1
     2    18    11    1
     3    11    12   ar
     4    12    13   ar
     5    13    14   ar
     6    14    15   ar
     7    15    16   ar
     8    16    10    1
     9    10     8    1
    10     8     1    1
    11     1     2   ar
    12     2     3   ar
    13     3     4   ar
    14     4    19    1
    15    19    20    1
    16    20    21   ar
    17    21    22   ar
    18    22    23   ar
    19    23    24   ar
    20    24    25   ar
    21    25    26   ar
    22    26    27   ar
    23    27    28   ar
    24     4     5   ar
    25     5     6    1
    26     5     7   ar
    27    16    11   ar
    28     7     1   ar
    29    28    20   ar
    30    28    23    1
    31     8     9    1
    32    24    29    1
@<TRIPOS>MOLECULE
*****
 29 32 0 0 0
SMALL
GASTEIGER

@<TRIPOS>ATOM
      1 C          62.6660   89.0627   11.6866 C.ar    1  UNL1        0.1311
      2 C          62.7577   90.0821   10.5900 C.ar    1  UNL1        0.0339
      3 C          63.6065   91.3052   10.7722 C.ar    1  UNL1        0.0027
      4 C          64.3636   91.5091   12.0509 C.ar    1  UNL1        0.0283
      5 C          64.2720   90.4898   13.1475 C.ar    1  UNL1        0.2196
      6 F          65.0291   90.6937   14.4263 F       1  UNL1       -0.1835
      7 N          63.4231   89.2666   12.9653 N.ar    1  UNL1       -0.2035
      8 N          61.8171   87.8395   11.5045 N.pl3   1  UNL1       -0.3143
      9 H          61.8329   87.1243   12.1809 H       1  UNL1        0.1485
     10 C          60.9443   87.7059   10.2919 C.3     1  UNL1        0.1200
     11 C          60.3910   86.5321    8.0411 C.ar    1  UNL1        0.2224
     12 N          60.7638   85.5717    6.9509 N.ar    1  UNL1       -0.2104
     13 C          62.0627   84.8247    7.0212 C.ar    1  UNL1        0.1020
     14 C          62.9887   85.0381    8.1818 C.ar    1  UNL1        0.0206
     15 C          62.6159   85.9985    9.2720 C.ar    1  UNL1        0.0036
     16 C          61.3170   86.7455    9.2017 C.ar    1  UNL1        0.0506
     17 C          59.0434   88.6415    7.3450 C.3     1  UNL1        0.2542
     18 O          59.0922   87.2792    7.9708 O.3     1  UNL1       -0.4563
     19 C          65.2125   92.7324   12.2331 C.3     1  UNL1        0.0582
     20 C          66.2439   93.0896   11.2041 C.ar    1  UNL1        0.0044
     21 C          67.3391   92.1940   10.7057 C.ar    1  UNL1        0.0966
     22 N          68.1332   92.9560    9.6865 N.ar    1  UNL1       -0.2273
     23 C          67.5289   94.3225    9.5551 C.ar    1  UNL1        0.1402
     24 N          67.8909   95.5023    8.7025 N.ar    1  UNL1       -0.3374
     25 C          67.0853   96.7647    8.7879 C.ar    1  UNL1        0.0735
     26 C          65.9177   96.8473    9.7259 C.ar    1  UNL1        0.0186
     27 C          65.5556   95.6675   10.5784 C.ar    1  UNL1        0.0043
     28 C          66.3612   94.4051   10.4930 C.ar    1  UNL1        0.0318
     29 H          68.6573   95.4481    8.0869 H       1  UNL1        0.1674
@<TRIPOS>BOND
     1    17    18    1
     2    18    11    1
     3    11    12   ar
     4    12    13   ar
     5    13    14   ar
     6    14    15   ar
     7    15    16   ar
     8    16    10    1
     9    10     8    1
    10     8     1    1
    11     1     2   ar
    12     2     3   ar
    13     3     4   ar
    14     4    19    1
    15    19    20    1
    16    20    21   ar
    17    21    22   ar
    18    22    23   ar
    19    23    24   ar
    20    24    25   ar
    21    25    26   ar
    22    26    27   ar
    23    27    28   ar
    24     4     5   ar
    25     5     6    1
    26     5     7   ar
    27    16    11   ar
    28     7     1   ar
    29    28    20   ar
    30    28    23    1
    31     8     9    1
    32    24    29    1
@<TRIPOS>MOLECULE
*****
 29 32 0 0 0
SMALL
GASTEIGER

@<TRIPOS>ATOM
      1 C          62.1402   88.8243   11.5814 C.ar    1  UNL1        0.1311
      2 C          62.5225   89.6227   10.3704 C.ar    1  UNL1        0.0339
      3 C          63.3918   90.8363   10.5160 C.ar    1  UNL1        0.0027
      4 C          63.8790   91.2516   11.8726 C.ar    1  UNL1        0.0283
      5 C          63.4967   90.4532   13.0836 C.ar    1  UNL1        0.2196
      6 F          63.9839   90.8684   14.4401 F       1  UNL1       -0.1835
      7 N          62.6274   89.2396   12.9379 N.ar    1  UNL1       -0.2035
      8 N          61.2709   87.6106   11.4358 N.pl3   1  UNL1       -0.3143
      9 H          61.2075   86.9595   12.1715 H       1  UNL1        0.1485
     10 C          60.4981   87.3890   10.1694 C.3     1  UNL1        0.1200
     11 C          60.2744   86.2644    7.8380 C.ar    1  UNL1        0.2224
     12 N          60.8383   85.3883    6.7590 N.ar    1  UNL1       -0.2104
     13 C          62.1896   84.7607    6.9321 C.ar    1  UNL1        0.1020
     14 C          62.9771   85.0092    8.1844 C.ar    1  UNL1        0.0206
     15 C          62.4132   85.8854    9.2634 C.ar    1  UNL1        0.0036
     16 C          61.0619   86.5130    9.0903 C.ar    1  UNL1        0.0506
     17 C          58.8108   88.3214    7.2243 C.3     1  UNL1        0.2542
     18 O          58.9230   86.8920    7.6649 O.3     1  UNL1       -0.4563
     19 C          64.7484   92.4653   12.0182 C.3     1  UNL1        0.0582
     20 C          66.2150   92.3089   12.2914 C.ar    1  UNL1        0.0044
     21 C          67.2733   92.0001   11.2742 C.ar    1  UNL1        0.0966
     22 N          68.5931   91.9342   11.9840 N.ar    1  UNL1       -0.2273
     23 C          68.3505   92.2023   13.4397 C.ar    1  UNL1        0.1402
     24 N          69.2781   92.2654   14.6168 N.ar    1  UNL1       -0.3374
     25 C          68.7358   92.5602   15.9840 C.ar    1  UNL1        0.0735
     26 C          67.2660   92.7918   16.1740 C.ar    1  UNL1        0.0186
     27 C          66.3385   92.7286   14.9969 C.ar    1  UNL1        0.0043
     28 C          66.8807   92.4339   13.6297 C.ar    1  UNL1        0.0318
     29 H          70.2427   92.1134   14.4921 H       1  UNL1        0.1674
@<TRIPOS>BOND
     1    17    18    1
     2    18    11    1
     3    11    12   ar
     4    12    13   ar
     5    13    14   ar
     6    14    15   ar
     7    15    16   ar
     8    16    10    1
     9    10     8    1
    10     8     1    1
    11     1     2   ar
    12     2     3   ar
    13     3     4   ar
    14     4    19    1
    15    19    20    1
    16    20    21   ar
    17    21    22   ar
    18    22    23   ar
    19    23    24   ar
    20    24    25   ar
    21    25    26   ar
    22    26    27   ar
    23    27    28   ar
    24     4     5   ar
    25     5     6    1
    26     5     7   ar
    27    16    11   ar
    28     7     1   ar
    29    28    20   ar
    30    28    23    1
    31     8     9    1
    32    24    29    1
@<TRIPOS>MOLECULE
*****
 29 32 0 0 0
SMALL
GASTEIGER

@<TRIPOS>ATOM
      1 C          63.8522   86.5242   13.7993 C.ar    1  UNL1        0.1311
      2 C          64.3985   87.5011   14.7978 C.ar    1  UNL1        0.0339
      3 C          64.3316   88.9737   14.5203 C.ar    1  UNL1        0.0027
      4 C          63.7184   89.4693   13.2442 C.ar    1  UNL1        0.0283
      5 C          63.1721   88.4924   12.2456 C.ar    1  UNL1        0.2196
      6 F          62.5590   88.9880   10.9695 F       1  UNL1       -0.1835
      7 N          63.2390   87.0198   12.5232 N.ar    1  UNL1       -0.2035
      8 N          63.9190   85.0516   14.0768 N.pl3   1  UNL1       -0.3143
      9 H          64.7918   84.6127   14.1982 H       1  UNL1        0.1485
     10 C          62.6560   84.2477   14.1693 C.3     1  UNL1        0.1200
     11 C          63.2578   82.5701   12.2788 C.ar    1  UNL1        0.2224
     12 N          63.2074   81.1842   11.7074 N.ar    1  UNL1       -0.2104
     13 C          62.5047   80.0899   12.4548 C.ar    1  UNL1        0.1020
     14 C          61.8524   80.3815   13.7737 C.ar    1  UNL1        0.0206
     15 C          61.9029   81.7674   14.3452 C.ar    1  UNL1        0.0036
     16 C          62.6056   82.8618   13.5977 C.ar    1  UNL1        0.0506
     17 C          63.4052   84.1595   10.2289 C.3     1  UNL1        0.2542
     18 O          63.9605   83.6645   11.5314 O.3     1  UNL1       -0.4563
     19 C          63.6516   90.9420   12.9666 C.3     1  UNL1        0.0582
     20 C          64.9158   91.7382   12.8334 C.ar    1  UNL1        0.0044
     21 C          65.5263   92.2150   11.5489 C.ar    1  UNL1        0.0966
     22 N          66.7793   92.9689   11.8829 N.ar    1  UNL1       -0.2273
     23 C          66.9432   92.9580   13.3739 C.ar    1  UNL1        0.1402
     24 N          67.9924   93.5425   14.2725 N.ar    1  UNL1       -0.3374
     25 C          67.8899   93.3664   15.7586 C.ar    1  UNL1        0.0735
     26 C          66.7382   92.6058   16.3460 C.ar    1  UNL1        0.0186
     27 C          65.6890   92.0213   15.4474 C.ar    1  UNL1        0.0043
     28 C          65.7915   92.1974   13.9613 C.ar    1  UNL1        0.0318
     29 H          68.7483   94.0417   13.8870 H       1  UNL1        0.1674
@<TRIPOS>BOND
     1    17    18    1
     2    18    11    1
     3    11    12   ar
     4    12    13   ar
     5    13    14   ar
     6    14    15   ar
     7    15    16   ar
     8    16    10    1
     9    10     8    1
    10     8     1    1
    11     1     2   ar
    12     2     3   ar
    13     3     4   ar
    14     4    19    1
    15    19    20    1
    16    20    21   ar
    17    21    22   ar
    18    22    23   ar
    19    23    24   ar
    20    24    25   ar
    21    25    26   ar
    22    26    27   ar
    23    27    28   ar
    24     4     5   ar
    25     5     6    1
    26     5     7   ar
    27    16    11   ar
    28     7     1   ar
    29    28    20   ar
    30    28    23    1
    31     8     9    1
    32    24    29    1
@<TRIPOS>MOLECULE
*****
 29 32 0 0 0
SMALL
GASTEIGER

@<TRIPOS>ATOM
      1 C          64.1947   91.3715   12.1465 C.ar    1  UNL1        0.1311
      2 C          63.4111   91.0924   10.8983 C.ar    1  UNL1        0.0339
      3 C          62.7835   89.7457   10.6923 C.ar    1  UNL1        0.0027
      4 C          62.9395   88.6782   11.7344 C.ar    1  UNL1        0.0283
      5 C          63.7231   88.9573   12.9826 C.ar    1  UNL1        0.2196
      6 F          63.8791   87.8897   14.0247 F       1  UNL1       -0.1835
      7 N          64.3507   90.3040   13.1886 N.ar    1  UNL1       -0.2035
      8 N          64.8223   92.7182   12.3527 N.pl3   1  UNL1       -0.3143
      9 H          64.2576   93.4984   12.5568 H       1  UNL1        0.1485
     10 C          66.3103   92.8763   12.2478 C.3     1  UNL1        0.1200
     11 C          66.5680   94.3582   10.1294 C.ar    1  UNL1        0.2224
     12 N          67.2024   94.6182    8.7953 N.ar    1  UNL1       -0.2104
     13 C          68.2136   93.6563    8.2454 C.ar    1  UNL1        0.1020
     14 C          68.5903   92.4344    9.0297 C.ar    1  UNL1        0.0206
     15 C          67.9559   92.1744   10.3638 C.ar    1  UNL1        0.0036
     16 C          66.9447   93.1363   10.9137 C.ar    1  UNL1        0.0506
     17 C          66.0106   96.5522   11.4044 C.3     1  UNL1        0.2542
     18 O          65.5568   95.3201   10.6792 O.3     1  UNL1       -0.4563
     19 C          62.3118   87.3314   11.5282 C.3     1  UNL1        0.0582
     20 C          61.3677   87.1112   10.3836 C.ar    1  UNL1        0.0044
     21 C          59.9864   87.6824   10.2577 C.ar    1  UNL1        0.0966
     22 N          59.4041   87.2054    8.9603 N.ar    1  UNL1       -0.2273
     23 C          60.4255   86.3394    8.2843 C.ar    1  UNL1        0.1402
     24 N          60.4073   85.5964    6.9814 N.ar    1  UNL1       -0.3374
     25 C          61.6027   84.7952    6.5583 C.ar    1  UNL1        0.0735
     26 C          62.8162   84.7370    7.4380 C.ar    1  UNL1        0.0186
     27 C          62.8344   85.4800    8.7409 C.ar    1  UNL1        0.0043
     28 C          61.6391   86.2812    9.1640 C.ar    1  UNL1        0.0318
     29 H          59.6108   85.6346    6.4041 H       1  UNL1        0.1674
@<TRIPOS>BOND
     1    17    18    1
     2    18    11    1
     3    11    12   ar
     4    12    13   ar
     5    13    14   ar
     6    14    15   ar
     7    15    16   ar
     8    16    10    1
     9    10     8    1
    10     8     1    1
    11     1     2   ar
    12     2     3   ar
    13     3     4   ar
    14     4    19    1
    15    19    20    1
    16    20    21   ar
    17    21    22   ar
    18    22    23   ar
    19    23    24   ar
    20    24    25   ar
    21    25    26   ar
    22    26    27   ar
    23    27    28   ar
    24     4     5   ar
    25     5     6    1
    26     5     7   ar
    27    16    11   ar
    28     7     1   ar
    29    28    20   ar
    30    28    23    1
    31     8     9    1
    32    24    29    1
@<TRIPOS>MOLECULE
*****
 29 32 0 0 0
SMALL
GASTEIGER

@<TRIPOS>ATOM
      1 C          62.6326   89.4845   12.0061 C.ar    1  UNL1        0.1311
      2 C          62.8680   90.4505   10.8829 C.ar    1  UNL1        0.0339
      3 C          63.9180   91.5134   11.0156 C.ar    1  UNL1        0.0027
      4 C          64.7326   91.6105   12.2714 C.ar    1  UNL1        0.0283
      5 C          64.4972   90.6445   13.3946 C.ar    1  UNL1        0.2196
      6 F          65.3118   90.7415   14.6503 F       1  UNL1       -0.1835
      7 N          63.4472   89.5816   13.2619 N.ar    1  UNL1       -0.2035
      8 N          61.5826   88.4216   11.8735 N.pl3   1  UNL1       -0.3143
      9 H          61.0867   88.1178   12.6679 H       1  UNL1        0.1485
     10 C          61.2882   87.8214   10.5307 C.3     1  UNL1        0.1200
     11 C          62.5203   85.6052   11.0969 C.ar    1  UNL1        0.2224
     12 N          63.2510   84.3742   10.6491 N.ar    1  UNL1       -0.2104
     13 C          63.4804   84.1283    9.1873 C.ar    1  UNL1        0.1020
     14 C          62.9791   85.1134    8.1733 C.ar    1  UNL1        0.0206
     15 C          62.2484   86.3444    8.6211 C.ar    1  UNL1        0.0036
     16 C          62.0190   86.5903   10.0829 C.ar    1  UNL1        0.0506
     17 C          63.3632   85.5170   13.5529 C.3     1  UNL1        0.2542
     18 O          62.2909   85.8511   12.5588 O.3     1  UNL1       -0.4563
     19 C          65.7826   92.6735   12.4040 C.3     1  UNL1        0.0582
     20 C          66.6155   93.0572   11.2169 C.ar    1  UNL1        0.0044
     21 C          67.5970   92.1734   10.5058 C.ar    1  UNL1        0.0966
     22 N          68.2012   92.9621    9.3820 N.ar    1  UNL1       -0.2273
     23 C          67.5932   94.3332    9.3986 C.ar    1  UNL1        0.1402
     24 N          67.8053   95.5358    8.5276 N.ar    1  UNL1       -0.3374
     25 C          67.0375   96.7972    8.7906 C.ar    1  UNL1        0.0735
     26 C          66.0574   96.8560    9.9247 C.ar    1  UNL1        0.0186
     27 C          65.8453   95.6534   10.7957 C.ar    1  UNL1        0.0043
     28 C          66.6132   94.3920   10.5327 C.ar    1  UNL1        0.0318
     29 H          68.4486   95.4972    7.7832 H       1  UNL1        0.1674
@<TRIPOS>BOND
     1    17    18    1
     2    18    11    1
     3    11    12   ar
     4    12    13   ar
     5    13    14   ar
     6    14    15   ar
     7    15    16   ar
     8    16    10    1
     9    10     8    1
    10     8     1    1
    11     1     2   ar
    12     2     3   ar
    13     3     4   ar
    14     4    19    1
    15    19    20    1
    16    20    21   ar
    17    21    22   ar
    18    22    23   ar
    19    23    24   ar
    20    24    25   ar
    21    25    26   ar
    22    26    27   ar
    23    27    28   ar
    24     4     5   ar
    25     5     6    1
    26     5     7   ar
    27    16    11   ar
    28     7     1   ar
    29    28    20   ar
    30    28    23    1
    31     8     9    1
    32    24    29    1
@<TRIPOS>MOLECULE
*****
 29 32 0 0 0
SMALL
GASTEIGER

@<TRIPOS>ATOM
      1 C          62.2153   88.4427   10.6483 C.ar    1  UNL1        0.1311
      2 C          62.2258   89.8020   10.0141 C.ar    1  UNL1        0.0339
      3 C          62.8773   90.9539   10.7201 C.ar    1  UNL1        0.0027
      4 C          63.5182   90.7467   12.0603 C.ar    1  UNL1        0.0283
      5 C          63.5077   89.3874   12.6946 C.ar    1  UNL1        0.2196
      6 F          64.1487   89.1801   14.0348 F       1  UNL1       -0.1835
      7 N          62.8563   88.2354   11.9885 N.ar    1  UNL1       -0.2035
      8 N          61.5638   87.2907    9.9423 N.pl3   1  UNL1       -0.3143
      9 H          61.3159   87.3718    8.9930 H       1  UNL1        0.1485
     10 C          61.2901   86.0151   10.6826 C.3     1  UNL1        0.1200
     11 C          63.2006   84.6526    9.5673 C.ar    1  UNL1        0.2224
     12 N          64.2570   83.5908    9.6481 N.ar    1  UNL1       -0.2104
     13 C          64.4593   82.8296   10.9247 C.ar    1  UNL1        0.1020
     14 C          63.6052   83.1303   12.1205 C.ar    1  UNL1        0.0206
     15 C          62.5489   84.1921   12.0398 C.ar    1  UNL1        0.0036
     16 C          62.3465   84.9533   10.7632 C.ar    1  UNL1        0.0506
     17 C          62.2533   84.7835    7.1517 C.3     1  UNL1        0.2542
     18 O          62.9983   85.4138    8.2907 O.3     1  UNL1       -0.4563
     19 C          64.1697   91.8987   12.7664 C.3     1  UNL1        0.0582
     20 C          65.6606   92.0586   12.7232 C.ar    1  UNL1        0.0044
     21 C          66.5067   92.1063   11.4856 C.ar    1  UNL1        0.0966
     22 N          67.9361   92.2761   11.9077 N.ar    1  UNL1       -0.2273
     23 C          67.9733   92.3333   13.4061 C.ar    1  UNL1        0.1402
     24 N          69.1061   92.4905   14.3767 N.ar    1  UNL1       -0.3374
     25 C          68.8325   92.5132   15.8513 C.ar    1  UNL1        0.0735
     26 C          67.4261   92.3788   16.3554 C.ar    1  UNL1        0.0186
     27 C          66.2933   92.2217   15.3848 C.ar    1  UNL1        0.0043
     28 C          66.5669   92.1989   13.9102 C.ar    1  UNL1        0.0318
     29 H          70.0291   92.5787   14.0459 H       1  UNL1        0.1674
@<TRIPOS>BOND
     1    17    18    1
     2    18    11    1
     3    11    12   ar
     4    12    13   ar
     5    13    14   ar
     6    14    15   ar
     7    15    16   ar
     8    16    10    1
     9    10     8    1
    10     8     1    1
    11     1     2   ar
    12     2     3   ar
    13     3     4   ar
    14     4    19    1
    15    19    20    1
    16    20    21   ar
    17    21    22   ar
    18    22    23   ar
    19    23    24   ar
    20    24    25   ar
    21    25    26   ar
    22    26    27   ar
    23    27    28   ar
    24     4     5   ar
    25     5     6    1
    26     5     7   ar
    27    16    11   ar
    28     7     1   ar
    29    28    20   ar
    30    28    23    1
    31     8     9    1
    32    24    29    1
@<TRIPOS>MOLECULE
*****
 29 32 0 0 0
SMALL
GASTEIGER

@<TRIPOS>ATOM
      1 C          64.4216   91.7093   12.0030 C.ar    1  UNL1        0.1311
      2 C          63.6881   91.3423   10.7470 C.ar    1  UNL1        0.0339
      3 C          63.0244   90.0023   10.6306 C.ar    1  UNL1        0.0027
      4 C          63.0940   89.0292   11.7700 C.ar    1  UNL1        0.0283
      5 C          63.8274   89.3962   13.0260 C.ar    1  UNL1        0.2196
      6 F          63.8971   88.4231   14.1654 F       1  UNL1       -0.1835
      7 N          64.4912   90.7363   13.1424 N.ar    1  UNL1       -0.2035
      8 N          65.0853   93.0494   12.1195 N.pl3   1  UNL1       -0.3143
      9 H          64.6822   93.7513   12.6798 H       1  UNL1        0.1485
     10 C          66.3634   93.3200   11.3824 C.3     1  UNL1        0.1200
     11 C          67.6731   94.6727    9.5921 C.ar    1  UNL1        0.2224
     12 N          67.7715   95.8512    8.6694 N.ar    1  UNL1       -0.2104
     13 C          66.6587   96.8555    8.6142 C.ar    1  UNL1        0.1020
     14 C          65.4475   96.6813    9.4817 C.ar    1  UNL1        0.0206
     15 C          65.3491   95.5028   10.4045 C.ar    1  UNL1        0.0036
     16 C          66.4619   94.4985   10.4596 C.ar    1  UNL1        0.0506
     17 C          68.6989   92.4073    8.8398 C.3     1  UNL1        0.2542
     18 O          68.7859   93.6684    9.6473 O.3     1  UNL1       -0.4563
     19 C          62.4302   87.6890   11.6535 C.3     1  UNL1        0.0582
     20 C          61.4417   87.4348   10.5543 C.ar    1  UNL1        0.0044
     21 C          60.0632   88.0179   10.4560 C.ar    1  UNL1        0.0966
     22 N          59.4277   87.4962    9.2014 N.ar    1  UNL1       -0.2273
     23 C          60.4134   86.5907    8.5243 C.ar    1  UNL1        0.1402
     24 N          60.3384   85.7958    7.2545 N.ar    1  UNL1       -0.3374
     25 C          61.5081   84.9630    6.8209 C.ar    1  UNL1        0.0735
     26 C          62.7528   84.9250    7.6571 C.ar    1  UNL1        0.0186
     27 C          62.8278   85.7198    8.9269 C.ar    1  UNL1        0.0043
     28 C          61.6581   86.5527    9.3605 C.ar    1  UNL1        0.0318
     29 H          59.5214   85.8207    6.7057 H       1  UNL1        0.1674
@<TRIPOS>BOND
     1    17    18    1
     2    18    11    1
     3    11    12   ar
     4    12    13   ar
     5    13    14   ar
     6    14    15   ar
     7    15    16   ar
     8    16    10    1
     9    10     8    1
    10     8     1    1
    11     1     2   ar
    12     2     3   ar
    13     3     4   ar
    14     4    19    1
    15    19    20    1
    16    20    21   ar
    17    21    22   ar
    18    22    23   ar
    19    23    24   ar
    20    24    25   ar
    21    25    26   ar
    22    26    27   ar
    23    27    28   ar
    24     4     5   ar
    25     5     6    1
    26     5     7   ar
    27    16    11   ar
    28     7     1   ar
    29    28    20   ar
    30    28    23    1
    31     8     9    1
    32    24    29    1
