@<TRIPOS>MOLECULE
*****
 39 41 0 0 0
SMALL
GASTEIGER

@<TRIPOS>ATOM
      1 C          62.9354   88.0031   12.3815 C.2     1  UNL1        0.2491
      2 O          63.4801   86.6622   12.7755 O.2     1  UNL1       -0.2699
      3 N          61.7508   88.0918   11.4657 N.am    1  UNL1       -0.2776
      4 C          64.6375   91.5870   12.4732 C.ar    1  UNL1        0.1723
      5 C          63.9976   90.3348   11.9513 C.ar    1  UNL1        0.0446
      6 C          63.5754   89.2554   12.9035 C.ar    1  UNL1        0.0568
      7 C          63.7932   89.4281   14.3775 C.ar    1  UNL1        0.0078
      8 C          64.4331   90.6804   14.8993 C.ar    1  UNL1        0.0402
      9 C          64.8553   91.7598   13.9472 C.ar    1  UNL1        0.1724
     10 O          65.4953   93.0121   14.4691 O.3     1  UNL1       -0.4684
     11 C          66.8509   92.9512   15.1083 C.3     1  UNL1        0.2526
     12 O          65.0597   92.6665   11.5211 O.3     1  UNL1       -0.4723
     13 C          66.5140   92.9955   11.3574 C.3     1  UNL1        0.2082
     14 C          67.3471   92.2391   10.3656 C.3     1  UNL1        0.0794
     15 C          68.1491   92.9819    9.3384 C.3     1  UNL1        0.1461
     16 C          67.5635   95.4360    8.7183 C.3     1  UNL1        0.1741
     17 O          68.3893   94.4542    9.4955 O.3     1  UNL1       -0.3510
     18 C          61.2061   89.4329   11.0718 C.3     1  UNL1        0.0757
     19 C          61.6602   90.0821    9.7982 C.3     1  UNL1        0.0215
     20 C          60.2074   90.1246   11.9516 C.3     1  UNL1        0.0215
     21 C          61.1108   86.8397   10.9438 C.3     1  UNL1        0.0967
     22 C          61.7701   86.0632    9.8427 C.3     1  UNL1        0.0550
     23 C          61.6248   86.3217    8.3723 C.3     1  UNL1        0.0720
     24 N          62.4554   85.3102    7.6395 N.3     1  UNL1       -0.2960
     25 C          63.1140   84.4265    8.6570 C.3     1  UNL1        0.0886
     26 C          62.6905   84.8919   10.0186 C.3     1  UNL1        0.0934
     27 H          63.1654   85.7843    7.0813 H       1  UNL1        0.1233
     28 N          63.1132   84.2914   11.3266 N.am    1  UNL1       -0.2708
     29 C          64.1040   83.1656   11.3497 C.2     1  UNL1        0.4019
     30 O          64.6724   82.6402   10.0647 O.2     1  UNL1       -0.2264
     31 H          62.7402   84.6362   12.1699 H       1  UNL1        0.1527
     32 O          64.5267   82.5651   12.6576 O.3     1  UNL1       -0.4297
     33 C          63.5927   82.5900   13.8310 C.3     1  UNL1        0.2367
     34 C          63.5496   83.7900   14.7300 C.ar    1  UNL1        0.0213
     35 C          64.7157   84.7322   14.7796 C.ar    1  UNL1       -0.0007
     36 C          64.6727   85.9323   15.6786 C.ar    1  UNL1       -0.0002
     37 C          63.4635   86.1901   16.5279 C.ar    1  UNL1       -0.0000
     38 C          62.2974   85.2479   16.4783 C.ar    1  UNL1       -0.0002
     39 C          62.3404   84.0479   15.5793 C.ar    1  UNL1       -0.0007
@<TRIPOS>BOND
     1    16    17    1
     2    17    15    1
     3    15    14    1
     4    14    13    1
     5    13    12    1
     6    12     4    1
     7     4     5   ar
     8     5     6   ar
     9     6     1    1
    10     1     2    2
    11     1     3   am
    12     3    21    1
    13    22    21    1
    14    22    23    1
    15    23    24    1
    16    24    25    1
    17    25    26    1
    18    26    28    1
    19    28    29   am
    20    29    30    2
    21    29    32    1
    22    32    33    1
    23    33    34    1
    24    34    35   ar
    25    35    36   ar
    26    36    37   ar
    27    37    38   ar
    28    38    39   ar
    29     3    18    1
    30    18    19    1
    31    18    20    1
    32     6     7   ar
    33     7     8   ar
    34     8     9   ar
    35     9    10    1
    36    10    11    1
    37     9     4   ar
    38    26    22    1
    39    39    34   ar
    40    24    27    1
    41    28    31    1
@<TRIPOS>MOLECULE
*****
 39 41 0 0 0
SMALL
GASTEIGER

@<TRIPOS>ATOM
      1 C          63.1547   85.6839   12.0263 C.2     1  UNL1        0.2491
      2 O          63.2784   87.0292   12.6782 O.2     1  UNL1       -0.2699
      3 N          63.6029   84.4526   12.7565 N.am    1  UNL1       -0.2776
      4 C          60.6583   86.0293    8.9607 C.ar    1  UNL1        0.1723
      5 C          61.2301   86.1433   10.3427 C.ar    1  UNL1        0.0446
      6 C          62.5829   85.5698   10.6443 C.ar    1  UNL1        0.0568
      7 C          63.3639   84.8823    9.5639 C.ar    1  UNL1        0.0078
      8 C          62.7921   84.7683    8.1819 C.ar    1  UNL1        0.0402
      9 C          61.4393   85.3418    7.8803 C.ar    1  UNL1        0.1724
     10 O          60.8674   85.2277    6.4982 O.3     1  UNL1       -0.4684
     11 C          61.4913   84.2946    5.5031 C.3     1  UNL1        0.2526
     12 O          59.3054   86.6028    8.6591 O.3     1  UNL1       -0.4723
     13 C          59.1883   87.8746    7.8726 C.3     1  UNL1        0.2082
     14 C          60.1039   89.0256    8.1672 C.3     1  UNL1        0.0794
     15 C          60.1082   89.6506    9.5308 C.3     1  UNL1        0.1461
     16 C          61.2789   89.7668   11.8472 C.3     1  UNL1        0.1741
     17 O          61.3618   89.6448   10.3545 O.3     1  UNL1       -0.3510
     18 C          63.4792   83.1073   12.1047 C.3     1  UNL1        0.0757
     19 C          64.5720   82.6048   11.2085 C.3     1  UNL1        0.0215
     20 C          62.2626   82.2645   12.3490 C.3     1  UNL1        0.0215
     21 C          64.1747   84.5666   14.1386 C.3     1  UNL1        0.0967
     22 C          63.3802   85.2257   15.2269 C.3     1  UNL1        0.0550
     23 C          62.2380   84.6113   15.9804 C.3     1  UNL1        0.0720
     24 N          61.7403   85.6207   16.9720 N.3     1  UNL1       -0.2960
     25 C          62.5750   86.8590   16.8315 C.3     1  UNL1        0.0886
     26 C          63.5885   86.6149   15.7529 C.3     1  UNL1        0.0934
     27 H          61.8286   85.2493   17.9179 H       1  UNL1        0.1233
     28 N          64.6279   87.5890   15.2829 N.am    1  UNL1       -0.2708
     29 C          64.2513   89.0155   15.0129 C.2     1  UNL1        0.4019
     30 O          62.8352   89.4682   15.2129 O.2     1  UNL1       -0.2264
     31 H          65.5573   87.2920   15.1517 H       1  UNL1        0.1527
     32 O          65.2906   89.9897   14.5429 O.3     1  UNL1       -0.4297
     33 C          64.9474   91.4431   14.4027 C.3     1  UNL1        0.2367
     34 C          65.2024   92.1522   13.1057 C.ar    1  UNL1        0.0213
     35 C          64.5147   91.6954   11.8533 C.ar    1  UNL1       -0.0007
     36 C          64.7697   92.4045   10.5563 C.ar    1  UNL1       -0.0002
     37 C          65.7124   93.5704   10.5117 C.ar    1  UNL1       -0.0000
     38 C          66.4001   94.0272   11.7641 C.ar    1  UNL1       -0.0002
     39 C          66.1451   93.3181   13.0611 C.ar    1  UNL1       -0.0007
@<TRIPOS>BOND
     1    16    17    1
     2    17    15    1
     3    15    14    1
     4    14    13    1
     5    13    12    1
     6    12     4    1
     7     4     5   ar
     8     5     6   ar
     9     6     1    1
    10     1     2    2
    11     1     3   am
    12     3    21    1
    13    22    21    1
    14    22    23    1
    15    23    24    1
    16    24    25    1
    17    25    26    1
    18    26    28    1
    19    28    29   am
    20    29    30    2
    21    29    32    1
    22    32    33    1
    23    33    34    1
    24    34    35   ar
    25    35    36   ar
    26    36    37   ar
    27    37    38   ar
    28    38    39   ar
    29     3    18    1
    30    18    19    1
    31    18    20    1
    32     6     7   ar
    33     7     8   ar
    34     8     9   ar
    35     9    10    1
    36    10    11    1
    37     9     4   ar
    38    26    22    1
    39    39    34   ar
    40    24    27    1
    41    28    31    1
@<TRIPOS>MOLECULE
*****
 39 41 0 0 0
SMALL
GASTEIGER

@<TRIPOS>ATOM
      1 C          62.4467   85.4937   11.8800 C.2     1  UNL1        0.2491
      2 O          62.2253   85.6247   13.3577 O.2     1  UNL1       -0.2699
      3 N          63.2821   84.3693   11.3435 N.am    1  UNL1       -0.2776
      4 C          61.7023   88.9005    9.9853 C.ar    1  UNL1        0.1723
      5 C          62.3162   87.9071   10.9266 C.ar    1  UNL1        0.0446
      6 C          61.8327   86.4872   10.9386 C.ar    1  UNL1        0.0568
      7 C          60.7352   86.0608   10.0093 C.ar    1  UNL1        0.0078
      8 C          60.1213   87.0542    9.0680 C.ar    1  UNL1        0.0402
      9 C          60.6048   88.4741    9.0560 C.ar    1  UNL1        0.1724
     10 O          59.9908   89.4676    8.1146 O.3     1  UNL1       -0.4684
     11 C          59.2439   88.9913    6.9041 C.3     1  UNL1        0.2526
     12 O          62.1858   90.3204    9.9733 O.3     1  UNL1       -0.4723
     13 C          63.1362   90.7980   11.0309 C.3     1  UNL1        0.2082
     14 C          64.1490   91.8559   10.7068 C.3     1  UNL1        0.0794
     15 C          65.3088   92.0915   11.6285 C.3     1  UNL1        0.1461
     16 C          66.2453   93.0917   13.8359 C.3     1  UNL1        0.1741
     17 O          65.0780   92.6788   12.9894 O.3     1  UNL1       -0.3510
     18 C          63.5035   84.2384    9.8657 C.3     1  UNL1        0.0757
     19 C          64.0570   82.9641    9.3002 C.3     1  UNL1        0.0215
     20 C          63.1714   85.3818    8.9533 C.3     1  UNL1        0.0215
     21 C          63.8961   83.3759   12.2848 C.3     1  UNL1        0.0967
     22 C          63.1198   82.1638   12.7071 C.3     1  UNL1        0.0550
     23 C          63.2007   80.8029   12.0815 C.3     1  UNL1        0.0720
     24 N          62.2573   79.8978   12.8169 N.3     1  UNL1       -0.2960
     25 C          61.5933   80.6994   13.8970 C.3     1  UNL1        0.0886
     26 C          62.1264   82.0998   13.8291 C.3     1  UNL1        0.0934
     27 H          62.7738   79.1213   13.2299 H       1  UNL1        0.1233
     28 N          61.7347   83.2367   14.7258 N.am    1  UNL1       -0.2708
     29 C          62.7335   83.8145   15.6841 C.2     1  UNL1        0.4019
     30 O          64.1242   83.2554   15.7458 O.2     1  UNL1       -0.2264
     31 H          60.8221   83.6037   14.6854 H       1  UNL1        0.1527
     32 O          62.3419   84.9514   16.5809 O.3     1  UNL1       -0.4297
     33 C          63.3814   85.9203   17.0611 C.3     1  UNL1        0.2367
     34 C          63.5592   87.2363   16.3636 C.ar    1  UNL1        0.0213
     35 C          64.2435   87.2918   15.0299 C.ar    1  UNL1       -0.0007
     36 C          64.4214   88.6078   14.3324 C.ar    1  UNL1       -0.0002
     37 C          63.9150   89.8683   14.9685 C.ar    1  UNL1       -0.0000
     38 C          63.2306   89.8128   16.3022 C.ar    1  UNL1       -0.0002
     39 C          63.0528   88.4968   16.9997 C.ar    1  UNL1       -0.0007
@<TRIPOS>BOND
     1    16    17    1
     2    17    15    1
     3    15    14    1
     4    14    13    1
     5    13    12    1
     6    12     4    1
     7     4     5   ar
     8     5     6   ar
     9     6     1    1
    10     1     2    2
    11     1     3   am
    12     3    21    1
    13    22    21    1
    14    22    23    1
    15    23    24    1
    16    24    25    1
    17    25    26    1
    18    26    28    1
    19    28    29   am
    20    29    30    2
    21    29    32    1
    22    32    33    1
    23    33    34    1
    24    34    35   ar
    25    35    36   ar
    26    36    37   ar
    27    37    38   ar
    28    38    39   ar
    29     3    18    1
    30    18    19    1
    31    18    20    1
    32     6     7   ar
    33     7     8   ar
    34     8     9   ar
    35     9    10    1
    36    10    11    1
    37     9     4   ar
    38    26    22    1
    39    39    34   ar
    40    24    27    1
    41    28    31    1
@<TRIPOS>MOLECULE
*****
 39 41 0 0 0
SMALL
GASTEIGER

@<TRIPOS>ATOM
      1 C          62.2205   88.5508   11.6511 C.2     1  UNL1        0.2491
      2 O          62.7591   87.2043   12.0343 O.2     1  UNL1       -0.2699
      3 N          60.8574   88.6660   11.0356 N.am    1  UNL1       -0.2776
      4 C          64.1823   91.4536   13.5154 C.ar    1  UNL1        0.1723
      5 C          63.3579   90.2222   13.2830 C.ar    1  UNL1        0.0446
      6 C          63.0449   89.7823   11.8835 C.ar    1  UNL1        0.0568
      7 C          63.5563   90.5737   10.7164 C.ar    1  UNL1        0.0078
      8 C          64.3807   91.8051   10.9489 C.ar    1  UNL1        0.0402
      9 C          64.6937   92.2450   12.3483 C.ar    1  UNL1        0.1724
     10 O          65.5182   93.4764   12.5807 O.3     1  UNL1       -0.4684
     11 C          66.2002   94.1510   11.4275 C.3     1  UNL1        0.2526
     12 O          64.4953   91.8935   14.9148 O.3     1  UNL1       -0.4723
     13 C          65.9182   92.1314   15.3257 C.3     1  UNL1        0.2082
     14 C          67.0226   91.3296   14.7033 C.3     1  UNL1        0.0794
     15 C          68.1667   92.0264   14.0282 C.3     1  UNL1        0.1461
     16 C          68.9238   93.8398   15.7278 C.3     1  UNL1        0.1741
     17 O          69.2456   92.6663   14.8507 O.3     1  UNL1       -0.3510
     18 C          60.3189   90.0125   10.6524 C.3     1  UNL1        0.0757
     19 C          60.5224   90.5333    9.2605 C.3     1  UNL1        0.0215
     20 C          59.5768   90.8382   11.6611 C.3     1  UNL1        0.0215
     21 C          60.0330   87.4346   10.8032 C.3     1  UNL1        0.0967
     22 C          59.9923   86.8050    9.4423 C.3     1  UNL1        0.0550
     23 C          59.0399   87.1543    8.3374 C.3     1  UNL1        0.0720
     24 N          59.3559   86.2808    7.1596 N.3     1  UNL1       -0.2960
     25 C          60.5035   85.3916    7.5367 C.3     1  UNL1        0.0886
     26 C          60.8969   85.7156    8.9475 C.3     1  UNL1        0.0934
     27 H          59.6139   86.8585    6.3595 H       1  UNL1        0.1233
     28 N          62.0010   85.0645    9.7266 N.am    1  UNL1       -0.2708
     29 C          63.2015   84.5179    9.0126 C.2     1  UNL1        0.4019
     30 O          63.2981   84.6225    7.5193 O.2     1  UNL1       -0.2264
     31 H          61.9376   84.9958   10.7066 H       1  UNL1        0.1527
     32 O          64.3056   83.8668    9.7917 O.3     1  UNL1       -0.4297
     33 C          64.1091   82.4962   10.3686 C.3     1  UNL1        0.2367
     34 C          63.4172   82.3304   11.6891 C.ar    1  UNL1        0.0213
     35 C          63.3532   83.4790   12.6517 C.ar    1  UNL1       -0.0007
     36 C          62.6613   83.3132   13.9723 C.ar    1  UNL1       -0.0002
     37 C          62.0335   81.9988   14.3303 C.ar    1  UNL1       -0.0000
     38 C          62.0976   80.8501   13.3677 C.ar    1  UNL1       -0.0002
     39 C          62.7894   81.0159   12.0471 C.ar    1  UNL1       -0.0007
@<TRIPOS>BOND
     1    16    17    1
     2    17    15    1
     3    15    14    1
     4    14    13    1
     5    13    12    1
     6    12     4    1
     7     4     5   ar
     8     5     6   ar
     9     6     1    1
    10     1     2    2
    11     1     3   am
    12     3    21    1
    13    22    21    1
    14    22    23    1
    15    23    24    1
    16    24    25    1
    17    25    26    1
    18    26    28    1
    19    28    29   am
    20    29    30    2
    21    29    32    1
    22    32    33    1
    23    33    34    1
    24    34    35   ar
    25    35    36   ar
    26    36    37   ar
    27    37    38   ar
    28    38    39   ar
    29     3    18    1
    30    18    19    1
    31    18    20    1
    32     6     7   ar
    33     7     8   ar
    34     8     9   ar
    35     9    10    1
    36    10    11    1
    37     9     4   ar
    38    26    22    1
    39    39    34   ar
    40    24    27    1
    41    28    31    1
@<TRIPOS>MOLECULE
*****
 39 41 0 0 0
SMALL
GASTEIGER

@<TRIPOS>ATOM
      1 C          63.3029   88.4203   12.7438 C.2     1  UNL1        0.2491
      2 O          63.7466   87.1002   13.3009 O.2     1  UNL1       -0.2699
      3 N          62.2084   88.4723   11.7193 N.am    1  UNL1       -0.2776
      4 C          65.0535   91.9814   12.6794 C.ar    1  UNL1        0.1723
      5 C          64.4028   90.7132   12.2122 C.ar    1  UNL1        0.0446
      6 C          63.9536   89.6885   13.2112 C.ar    1  UNL1        0.0568
      7 C          64.1551   89.9318   14.6775 C.ar    1  UNL1        0.0078
      8 C          64.8058   91.1999   15.1448 C.ar    1  UNL1        0.0402
      9 C          65.2550   92.2247   14.1458 C.ar    1  UNL1        0.1724
     10 O          65.9057   93.4929   14.6131 O.3     1  UNL1       -0.4684
     11 C          67.3850   93.5305   14.8585 C.3     1  UNL1        0.2526
     12 O          65.5027   93.0061   11.6804 O.3     1  UNL1       -0.4723
     13 C          66.0757   92.5700   10.3646 C.3     1  UNL1        0.2082
     14 C          67.5454   92.2967   10.2402 C.3     1  UNL1        0.0794
     15 C          68.4122   93.2115    9.4267 C.3     1  UNL1        0.1461
     16 C          67.5373   95.4491    8.4378 C.3     1  UNL1        0.1741
     17 O          68.2386   94.6978    9.5304 O.3     1  UNL1       -0.3510
     18 C          61.7647   89.7925   11.1623 C.3     1  UNL1        0.0757
     19 C          60.5862   90.5013   11.7611 C.3     1  UNL1        0.0215
     20 C          62.4997   90.4039   10.0064 C.3     1  UNL1        0.0215
     21 C          61.5577   87.2042   11.2520 C.3     1  UNL1        0.0967
     22 C          61.0251   87.1059    9.8532 C.3     1  UNL1        0.0550
     23 C          59.8008   87.7933    9.3255 C.3     1  UNL1        0.0720
     24 N          59.6423   87.4152    7.8826 N.3     1  UNL1       -0.2960
     25 C          60.7688   86.4941    7.5185 C.3     1  UNL1        0.0886
     26 C          61.6234   86.3029    8.7363 C.3     1  UNL1        0.0934
     27 H          59.6769   88.2516    7.2998 H       1  UNL1        0.1233
     28 N          62.8593   85.4572    8.8222 N.am    1  UNL1       -0.2708
     29 C          63.0015   84.4463    9.9211 C.2     1  UNL1        0.4019
     30 O          61.9077   84.2809   10.9342 O.2     1  UNL1       -0.2264
     31 H          63.5772   85.5658    8.1573 H       1  UNL1        0.1527
     32 O          64.2374   83.6006   10.0070 O.3     1  UNL1       -0.4297
     33 C          64.2887   82.4420   10.9583 C.3     1  UNL1        0.2367
     34 C          63.8330   82.6156   12.3769 C.ar    1  UNL1        0.0213
     35 C          62.6843   81.8051   12.9001 C.ar    1  UNL1       -0.0007
     36 C          62.2285   81.9786   14.3186 C.ar    1  UNL1       -0.0002
     37 C          62.9215   82.9626   15.2139 C.ar    1  UNL1       -0.0000
     38 C          64.0702   83.7731   14.6907 C.ar    1  UNL1       -0.0002
     39 C          64.5259   83.5995   13.2722 C.ar    1  UNL1       -0.0007
@<TRIPOS>BOND
     1    16    17    1
     2    17    15    1
     3    15    14    1
     4    14    13    1
     5    13    12    1
     6    12     4    1
     7     4     5   ar
     8     5     6   ar
     9     6     1    1
    10     1     2    2
    11     1     3   am
    12     3    21    1
    13    22    21    1
    14    22    23    1
    15    23    24    1
    16    24    25    1
    17    25    26    1
    18    26    28    1
    19    28    29   am
    20    29    30    2
    21    29    32    1
    22    32    33    1
    23    33    34    1
    24    34    35   ar
    25    35    36   ar
    26    36    37   ar
    27    37    38   ar
    28    38    39   ar
    29     3    18    1
    30    18    19    1
    31    18    20    1
    32     6     7   ar
    33     7     8   ar
    34     8     9   ar
    35     9    10    1
    36    10    11    1
    37     9     4   ar
    38    26    22    1
    39    39    34   ar
    40    24    27    1
    41    28    31    1
@<TRIPOS>MOLECULE
*****
 39 41 0 0 0
SMALL
GASTEIGER

@<TRIPOS>ATOM
      1 C          61.6347   90.0702   12.5560 C.2     1  UNL1        0.2491
      2 O          60.4351   89.8643   13.4327 O.2     1  UNL1       -0.2699
      3 N          61.4941   90.0013   11.0642 N.am    1  UNL1       -0.2776
      4 C          65.0403   91.8932   13.4662 C.ar    1  UNL1        0.1723
      5 C          63.7001   91.6184   12.8512 C.ar    1  UNL1        0.0446
      6 C          62.9749   90.3449   13.1712 C.ar    1  UNL1        0.0568
      7 C          63.5900   89.3462   14.1062 C.ar    1  UNL1        0.0078
      8 C          64.9301   89.6210   14.7212 C.ar    1  UNL1        0.0402
      9 C          65.6553   90.8945   14.4012 C.ar    1  UNL1        0.1724
     10 O          66.9956   91.1692   15.0164 O.3     1  UNL1       -0.4684
     11 C          67.1879   92.3749   15.8877 C.3     1  UNL1        0.2526
     12 O          65.7655   93.1666   13.1463 O.3     1  UNL1       -0.4723
     13 C          66.6042   93.2609   11.9063 C.3     1  UNL1        0.2082
     14 C          66.2595   94.2599   10.8418 C.3     1  UNL1        0.0794
     15 C          67.2076   94.5016    9.7048 C.3     1  UNL1        0.1461
     16 C          68.8098   92.5309    9.1578 C.3     1  UNL1        0.1741
     17 O          68.5804   93.8976    9.7316 O.3     1  UNL1       -0.3510
     18 C          62.6937   90.2072   10.1875 C.3     1  UNL1        0.0757
     19 C          63.1381   91.5967    9.8386 C.3     1  UNL1        0.0215
     20 C          63.4489   89.0235    9.6598 C.3     1  UNL1        0.0215
     21 C          60.1539   89.7266   10.4491 C.3     1  UNL1        0.0967
     22 C          59.9785   88.5592    9.5237 C.3     1  UNL1        0.0550
     23 C          59.4940   88.6233    8.1055 C.3     1  UNL1        0.0720
     24 N          59.4729   87.2265    7.5592 N.3     1  UNL1       -0.2960
     25 C          59.9444   86.2990    8.6398 C.3     1  UNL1        0.0886
     26 C          60.2568   87.1227    9.8538 C.3     1  UNL1        0.0934
     27 H          60.0930   87.1611    6.7520 H       1  UNL1        0.1233
     28 N          60.7594   86.6014   11.1675 N.am    1  UNL1       -0.2708
     29 C          62.0388   85.8205   11.2246 C.2     1  UNL1        0.4019
     30 O          62.8158   85.5609    9.9679 O.2     1  UNL1       -0.2264
     31 H          60.2495   86.7717   11.9922 H       1  UNL1        0.1527
     32 O          62.5414   85.2992   12.5382 O.3     1  UNL1       -0.4297
     33 C          63.5016   84.1472   12.5701 C.3     1  UNL1        0.2367
     34 C          62.9976   82.7576   12.8251 C.ar    1  UNL1        0.0213
     35 C          62.2050   82.4628   14.0639 C.ar    1  UNL1       -0.0007
     36 C          61.7009   81.0732   14.3190 C.ar    1  UNL1       -0.0002
     37 C          61.9896   79.9784   13.3351 C.ar    1  UNL1       -0.0000
     38 C          62.7823   80.2732   12.0962 C.ar    1  UNL1       -0.0002
     39 C          63.2863   81.6628   11.8412 C.ar    1  UNL1       -0.0007
@<TRIPOS>BOND
     1    16    17    1
     2    17    15    1
     3    15    14    1
     4    14    13    1
     5    13    12    1
     6    12     4    1
     7     4     5   ar
     8     5     6   ar
     9     6     1    1
    10     1     2    2
    11     1     3   am
    12     3    21    1
    13    22    21    1
    14    22    23    1
    15    23    24    1
    16    24    25    1
    17    25    26    1
    18    26    28    1
    19    28    29   am
    20    29    30    2
    21    29    32    1
    22    32    33    1
    23    33    34    1
    24    34    35   ar
    25    35    36   ar
    26    36    37   ar
    27    37    38   ar
    28    38    39   ar
    29     3    18    1
    30    18    19    1
    31    18    20    1
    32     6     7   ar
    33     7     8   ar
    34     8     9   ar
    35     9    10    1
    36    10    11    1
    37     9     4   ar
    38    26    22    1
    39    39    34   ar
    40    24    27    1
    41    28    31    1
@<TRIPOS>MOLECULE
*****
 39 41 0 0 0
SMALL
GASTEIGER

@<TRIPOS>ATOM
      1 C          65.0605   85.5671   14.6539 C.2     1  UNL1        0.2491
      2 O          66.5284   85.2761   14.7564 O.2     1  UNL1       -0.2699
      3 N          64.1311   84.5414   14.0758 N.am    1  UNL1       -0.2776
      4 C          64.2460   89.4480   14.8146 C.ar    1  UNL1        0.1723
      5 C          64.7845   88.1313   14.3390 C.ar    1  UNL1        0.0446
      6 C          64.5219   86.8839   15.1296 C.ar    1  UNL1        0.0568
      7 C          63.7208   86.9532   16.3958 C.ar    1  UNL1        0.0078
      8 C          63.1822   88.2698   16.8714 C.ar    1  UNL1        0.0402
      9 C          63.4448   89.5172   16.0808 C.ar    1  UNL1        0.1724
     10 O          62.9062   90.8340   16.5565 O.3     1  UNL1       -0.4684
     11 C          63.8416   91.9781   16.8134 C.3     1  UNL1        0.2526
     12 O          64.5086   90.6954   14.0240 O.3     1  UNL1       -0.4723
     13 C          63.8045   90.9180   12.7184 C.3     1  UNL1        0.2082
     14 C          64.4130   91.8151   11.6816 C.3     1  UNL1        0.0794
     15 C          65.7979   92.3569   11.8781 C.3     1  UNL1        0.1461
     16 C          66.5515   93.5872   14.0388 C.3     1  UNL1        0.1741
     17 O          66.0034   93.6307   12.6432 O.3     1  UNL1       -0.3510
     18 C          62.6632   84.8325   13.9733 C.3     1  UNL1        0.0757
     19 C          61.7279   84.3581   15.0457 C.3     1  UNL1        0.0215
     20 C          62.1306   85.5979   12.7984 C.3     1  UNL1        0.0215
     21 C          64.6697   83.2248   13.6001 C.3     1  UNL1        0.0967
     22 C          63.7265   82.1254   13.2104 C.3     1  UNL1        0.0550
     23 C          63.5255   80.8340   13.9464 C.3     1  UNL1        0.0720
     24 N          62.4935   80.0348   13.2072 N.3     1  UNL1       -0.2960
     25 C          62.0568   80.8324   12.0142 C.3     1  UNL1        0.0886
     26 C          62.8189   82.1244   12.0162 C.3     1  UNL1        0.0934
     27 H          61.6943   79.8551   13.8148 H       1  UNL1        0.1233
     28 N          62.6949   83.2226   11.0020 N.am    1  UNL1       -0.2708
     29 C          63.7969   83.4569   10.0118 C.2     1  UNL1        0.4019
     30 O          65.0229   82.5930   10.0356 O.2     1  UNL1       -0.2264
     31 H          61.8903   83.7897   10.9863 H       1  UNL1        0.1527
     32 O          63.6729   84.5551    8.9976 O.3     1  UNL1       -0.4297
     33 C          62.3614   84.7979    8.3114 C.3     1  UNL1        0.2367
     34 C          61.6121   86.0742    8.5555 C.ar    1  UNL1        0.0213
     35 C          60.2750   86.2938    7.9122 C.ar    1  UNL1       -0.0007
     36 C          59.5256   87.5701    8.1562 C.ar    1  UNL1       -0.0002
     37 C          60.1135   88.6269    9.0437 C.ar    1  UNL1       -0.0000
     38 C          61.4507   88.4074    9.6870 C.ar    1  UNL1       -0.0002
     39 C          62.2000   87.1310    9.4429 C.ar    1  UNL1       -0.0007
@<TRIPOS>BOND
     1    16    17    1
     2    17    15    1
     3    15    14    1
     4    14    13    1
     5    13    12    1
     6    12     4    1
     7     4     5   ar
     8     5     6   ar
     9     6     1    1
    10     1     2    2
    11     1     3   am
    12     3    21    1
    13    22    21    1
    14    22    23    1
    15    23    24    1
    16    24    25    1
    17    25    26    1
    18    26    28    1
    19    28    29   am
    20    29    30    2
    21    29    32    1
    22    32    33    1
    23    33    34    1
    24    34    35   ar
    25    35    36   ar
    26    36    37   ar
    27    37    38   ar
    28    38    39   ar
    29     3    18    1
    30    18    19    1
    31    18    20    1
    32     6     7   ar
    33     7     8   ar
    34     8     9   ar
    35     9    10    1
    36    10    11    1
    37     9     4   ar
    38    26    22    1
    39    39    34   ar
    40    24    27    1
    41    28    31    1
@<TRIPOS>MOLECULE
*****
 39 41 0 0 0
SMALL
GASTEIGER

@<TRIPOS>ATOM
      1 C          62.5750   90.1035   13.2509 C.2     1  UNL1        0.2491
      2 O          61.7307   89.8053   14.4543 O.2     1  UNL1       -0.2699
      3 N          62.0595   89.7920   11.8771 N.am    1  UNL1       -0.2776
      4 C          65.6531   92.5761   12.8494 C.ar    1  UNL1        0.1723
      5 C          64.2933   91.9665   12.6791 C.ar    1  UNL1        0.0446
      6 C          63.9350   90.7131   13.4212 C.ar    1  UNL1        0.0568
      7 C          64.9365   90.0695   14.3337 C.ar    1  UNL1        0.0078
      8 C          66.2963   90.6792   14.5040 C.ar    1  UNL1        0.0402
      9 C          66.6547   91.9325   13.7618 C.ar    1  UNL1        0.1724
     10 O          68.0146   92.5422   13.9322 O.3     1  UNL1       -0.4684
     11 C          68.4225   93.1063   15.2608 C.3     1  UNL1        0.2526
     12 O          66.0115   93.8294   12.1072 O.3     1  UNL1       -0.4723
     13 C          65.7256   93.9393   10.6388 C.3     1  UNL1        0.2082
     14 C          66.3546   95.0365    9.8323 C.3     1  UNL1        0.0794
     15 C          67.5891   94.7613    9.0258 C.3     1  UNL1        0.1461
     16 C          68.8407   92.4996    9.2861 C.3     1  UNL1        0.1741
     17 O          68.7077   93.9563    9.6179 O.3     1  UNL1       -0.3510
     18 C          62.9039   90.0901   10.6737 C.3     1  UNL1        0.0757
     19 C          63.0776   91.5065   10.2116 C.3     1  UNL1        0.0215
     20 C          63.5746   88.9718    9.9324 C.3     1  UNL1        0.0215
     21 C          60.6996   89.1823   11.7068 C.3     1  UNL1        0.0967
     22 C          60.3330   88.5162   10.4137 C.3     1  UNL1        0.0550
     23 C          59.6155   89.1583    9.2636 C.3     1  UNL1        0.0720
     24 N          59.4585   88.1300    8.1829 N.3     1  UNL1       -0.2960
     25 C          60.0789   86.8524    8.6651 C.3     1  UNL1        0.0886
     26 C          60.6194   87.0911   10.0439 C.3     1  UNL1        0.0934
     27 H          59.9292   88.4448    7.3345 H       1  UNL1        0.1233
     28 N          61.3228   86.0817   10.9020 N.am    1  UNL1       -0.2708
     29 C          62.4888   85.3137   10.3540 C.2     1  UNL1        0.4019
     30 O          62.9516   85.5549    8.9477 O.2     1  UNL1       -0.2264
     31 H          61.0191   85.9234   11.8250 H       1  UNL1        0.1527
     32 O          63.1922   84.3044   11.2122 O.3     1  UNL1       -0.4297
     33 C          62.5782   83.8635   12.5078 C.3     1  UNL1        0.2367
     34 C          62.9283   84.5715   13.7830 C.ar    1  UNL1        0.0213
     35 C          62.2224   84.2143   15.0574 C.ar    1  UNL1       -0.0007
     36 C          62.5725   84.9223   16.3326 C.ar    1  UNL1       -0.0002
     37 C          63.6284   85.9877   16.3334 C.ar    1  UNL1       -0.0000
     38 C          64.3343   86.3450   15.0590 C.ar    1  UNL1       -0.0002
     39 C          63.9842   85.6369   13.7838 C.ar    1  UNL1       -0.0007
@<TRIPOS>BOND
     1    16    17    1
     2    17    15    1
     3    15    14    1
     4    14    13    1
     5    13    12    1
     6    12     4    1
     7     4     5   ar
     8     5     6   ar
     9     6     1    1
    10     1     2    2
    11     1     3   am
    12     3    21    1
    13    22    21    1
    14    22    23    1
    15    23    24    1
    16    24    25    1
    17    25    26    1
    18    26    28    1
    19    28    29   am
    20    29    30    2
    21    29    32    1
    22    32    33    1
    23    33    34    1
    24    34    35   ar
    25    35    36   ar
    26    36    37   ar
    27    37    38   ar
    28    38    39   ar
    29     3    18    1
    30    18    19    1
    31    18    20    1
    32     6     7   ar
    33     7     8   ar
    34     8     9   ar
    35     9    10    1
    36    10    11    1
    37     9     4   ar
    38    26    22    1
    39    39    34   ar
    40    24    27    1
    41    28    31    1
@<TRIPOS>MOLECULE
*****
 39 41 0 0 0
SMALL
GASTEIGER

@<TRIPOS>ATOM
      1 C          61.2306   90.2354   11.1219 C.2     1  UNL1        0.2491
      2 O          59.9609   91.0329   11.0801 O.2     1  UNL1       -0.2699
      3 N          61.2037   88.7662   10.8203 N.am    1  UNL1       -0.2776
      4 C          64.3034   91.6010   13.2296 C.ar    1  UNL1        0.1723
      5 C          63.0069   90.9295   12.8863 C.ar    1  UNL1        0.0446
      6 C          62.5272   90.9069   11.4652 C.ar    1  UNL1        0.0568
      7 C          63.3441   91.5559   10.3875 C.ar    1  UNL1        0.0078
      8 C          64.6407   92.2274   10.7308 C.ar    1  UNL1        0.0402
      9 C          65.1203   92.2500   12.1519 C.ar    1  UNL1        0.1724
     10 O          66.4170   92.9216   12.4952 O.3     1  UNL1       -0.4684
     11 C          67.5204   92.1365   13.1403 C.3     1  UNL1        0.2526
     12 O          64.7831   91.6236   14.6507 O.3     1  UNL1       -0.4723
     13 C          63.9794   90.9518   15.7243 C.3     1  UNL1        0.2082
     14 C          63.7419   89.4718   15.6682 C.3     1  UNL1        0.0794
     15 C          63.0773   88.7747   16.8182 C.3     1  UNL1        0.1461
     16 C          62.6568   86.4810   17.9636 C.3     1  UNL1        0.1741
     17 O          62.7457   87.3151   16.7201 O.3     1  UNL1       -0.3510
     18 C          62.4735   87.9687   10.8620 C.3     1  UNL1        0.0757
     19 C          62.8491   87.2212   12.1071 C.3     1  UNL1        0.0215
     20 C          63.3676   87.9187    9.6587 C.3     1  UNL1        0.0215
     21 C          59.9072   88.0946   10.4770 C.3     1  UNL1        0.0967
     22 C          59.7674   87.3517    9.1814 C.3     1  UNL1        0.0550
     23 C          58.8849   87.7410    8.0326 C.3     1  UNL1        0.0720
     24 N          59.0576   86.7189    6.9483 N.3     1  UNL1       -0.2960
     25 C          60.0468   85.6980    7.4271 C.3     1  UNL1        0.0886
     26 C          60.4854   86.0891    8.8071 C.3     1  UNL1        0.0934
     27 H          59.4062   87.1681    6.1015 H       1  UNL1        0.1233
     28 N          61.4694   85.3476    9.6628 N.am    1  UNL1       -0.2708
     29 C          62.7561   84.8542    9.0704 C.2     1  UNL1        0.4019
     30 O          63.0589   85.1022    7.6224 O.2     1  UNL1       -0.2264
     31 H          61.2707   85.1848   10.6132 H       1  UNL1        0.1527
     32 O          63.7400   84.1128    9.9261 O.3     1  UNL1       -0.4297
     33 C          63.5030   82.6707   10.2638 C.3     1  UNL1        0.2367
     34 C          62.9988   82.2922   11.6250 C.ar    1  UNL1        0.0213
     35 C          62.7181   80.8545   11.9478 C.ar    1  UNL1       -0.0007
     36 C          62.2139   80.4760   13.3089 C.ar    1  UNL1       -0.0002
     37 C          61.9905   81.5352   14.3472 C.ar    1  UNL1       -0.0000
     38 C          62.2713   82.9730   14.0244 C.ar    1  UNL1       -0.0002
     39 C          62.7754   83.3515   12.6633 C.ar    1  UNL1       -0.0007
@<TRIPOS>BOND
     1    16    17    1
     2    17    15    1
     3    15    14    1
     4    14    13    1
     5    13    12    1
     6    12     4    1
     7     4     5   ar
     8     5     6   ar
     9     6     1    1
    10     1     2    2
    11     1     3   am
    12     3    21    1
    13    22    21    1
    14    22    23    1
    15    23    24    1
    16    24    25    1
    17    25    26    1
    18    26    28    1
    19    28    29   am
    20    29    30    2
    21    29    32    1
    22    32    33    1
    23    33    34    1
    24    34    35   ar
    25    35    36   ar
    26    36    37   ar
    27    37    38   ar
    28    38    39   ar
    29     3    18    1
    30    18    19    1
    31    18    20    1
    32     6     7   ar
    33     7     8   ar
    34     8     9   ar
    35     9    10    1
    36    10    11    1
    37     9     4   ar
    38    26    22    1
    39    39    34   ar
    40    24    27    1
    41    28    31    1
