@<TRIPOS>MOLECULE
*****
 27 30 0 0 0
SMALL
GASTEIGER

@<TRIPOS>ATOM
      1 C          63.9635   85.8890   15.6432 C.ar    1  UNL1       -0.0107
      2 C          64.5310   86.8366   14.6283 C.ar    1  UNL1       -0.0003
      3 C          64.3480   88.3156   14.7983 C.ar    1  UNL1        0.0366
      4 C          63.5973   88.8471   15.9833 C.ar    1  UNL1        0.1390
      5 C          63.0297   87.8996   16.9982 C.ar    1  UNL1        0.0366
      6 C          63.2128   86.4205   16.8281 C.ar    1  UNL1       -0.0003
      7 C          64.1465   84.4100   15.4732 C.3     1  UNL1        0.0913
      8 S          63.2551   83.6464   14.5392 S.3     1  UNL1       -0.0709
      9 C          61.4030   86.4429    9.0298 C.2     1  UNL1        0.1223
     10 C          62.4608   85.5633    8.4319 C.2     1  UNL1        0.0343
     11 C          63.2579   84.6456    9.3108 C.2     1  UNL1        0.0232
     12 C          62.9974   84.6076   10.7875 C.2     1  UNL1        0.0975
     13 N          63.6189   83.8110   11.8961 N.2     1  UNL1       -0.2200
     14 C          62.9452   84.1982   13.1792 C.2     1  UNL1        0.1901
     15 N          61.9074   85.2342   12.8635 N.2     1  UNL1       -0.2236
     16 C          61.9397   85.4872   11.3853 C.2     1  UNL1        0.0863
     17 C          61.1425   86.4048   10.5065 C.3     1  UNL1        0.1112
     18 C          59.2277   86.9663    7.7092 C.3     1  UNL1        0.2520
     19 O          60.6058   87.3606    8.1510 O.2     1  UNL1       -0.4753
     20 O          63.4143   90.3261   16.1533 O.3     1  UNL1       -0.4706
     21 C          63.8975   91.2687   15.0912 C.3     1  UNL1        0.2320
     22 C          65.3327   91.7043   15.0714 C.ar    1  UNL1        0.0212
     23 C          66.1938   91.3957   13.8827 C.ar    1  UNL1       -0.0007
     24 C          67.6291   91.8313   13.8630 C.ar    1  UNL1       -0.0002
     25 C          68.2031   92.5755   15.0320 C.ar    1  UNL1       -0.0000
     26 C          67.3420   92.8840   16.2208 C.ar    1  UNL1       -0.0002
     27 C          65.9068   92.4484   16.2405 C.ar    1  UNL1       -0.0007
@<TRIPOS>BOND
     1    18    19    1
     2    19     9    1
     3     9    10    2
     4    10    11    1
     5    11    12    2
     6    12    13    1
     7    13    14    2
     8    14     8    1
     9     8     7    1
    10     7     1    1
    11     1     2   ar
    12     2     3   ar
    13     3     4   ar
    14     4    20    1
    15    20    21    1
    16    21    22    1
    17    22    23   ar
    18    23    24   ar
    19    24    25   ar
    20    25    26   ar
    21    26    27   ar
    22     4     5   ar
    23     5     6   ar
    24    14    15    1
    25    15    16    2
    26    16    17    1
    27    17     9    1
    28    16    12    1
    29     6     1   ar
    30    27    22   ar
@<TRIPOS>MOLECULE
*****
 27 30 0 0 0
SMALL
GASTEIGER

@<TRIPOS>ATOM
      1 C          62.3279   89.9763   10.6125 C.ar    1  UNL1       -0.0107
      2 C          62.5742   89.5924   12.0415 C.ar    1  UNL1       -0.0003
      3 C          63.5429   90.3797   12.8733 C.ar    1  UNL1        0.0366
      4 C          64.2653   91.5509   12.2761 C.ar    1  UNL1        0.1390
      5 C          64.0189   91.9347   10.8471 C.ar    1  UNL1        0.0366
      6 C          63.0502   91.1474   10.0153 C.ar    1  UNL1       -0.0003
      7 C          61.3592   89.1890    9.7808 C.3     1  UNL1        0.0913
      8 S          60.6792   87.9843   10.3605 S.3     1  UNL1       -0.0709
      9 C          63.7796   82.5880   12.0554 C.2     1  UNL1        0.1223
     10 C          64.2182   82.5980   10.6210 C.2     1  UNL1        0.0343
     11 C          63.7644   83.6962    9.7056 C.2     1  UNL1        0.0232
     12 C          62.8720   84.7844   10.2245 C.2     1  UNL1        0.0975
     13 N          62.2683   85.9880    9.5635 N.2     1  UNL1       -0.2200
     14 C          61.4565   86.7219   10.5894 C.2     1  UNL1        0.1901
     15 N          61.5585   85.9719   11.8844 N.2     1  UNL1       -0.2236
     16 C          62.4334   84.7744   11.6589 C.2     1  UNL1        0.0863
     17 C          62.8872   83.6762   12.5743 C.3     1  UNL1        0.1112
     18 C          63.2264   80.7077   13.7607 C.3     1  UNL1        0.2520
     19 O          64.2335   81.4899   12.9708 O.2     1  UNL1       -0.4753
     20 O          65.2339   92.3381   13.1078 O.3     1  UNL1       -0.4706
     21 C          66.6895   92.3584   12.7461 C.3     1  UNL1        0.2320
     22 C          67.1212   92.8641   11.4015 C.ar    1  UNL1        0.0212
     23 C          67.9862   92.0110   10.5217 C.ar    1  UNL1       -0.0007
     24 C          68.4179   92.5167    9.1771 C.ar    1  UNL1       -0.0002
     25 C          67.9845   93.8754    8.7123 C.ar    1  UNL1       -0.0000
     26 C          67.1195   94.7285    9.5921 C.ar    1  UNL1       -0.0002
     27 C          66.6878   94.2228   10.9367 C.ar    1  UNL1       -0.0007
@<TRIPOS>BOND
     1    18    19    1
     2    19     9    1
     3     9    10    2
     4    10    11    1
     5    11    12    2
     6    12    13    1
     7    13    14    2
     8    14     8    1
     9     8     7    1
    10     7     1    1
    11     1     2   ar
    12     2     3   ar
    13     3     4   ar
    14     4    20    1
    15    20    21    1
    16    21    22    1
    17    22    23   ar
    18    23    24   ar
    19    24    25   ar
    20    25    26   ar
    21    26    27   ar
    22     4     5   ar
    23     5     6   ar
    24    14    15    1
    25    15    16    2
    26    16    17    1
    27    17     9    1
    28    16    12    1
    29     6     1   ar
    30    27    22   ar
@<TRIPOS>MOLECULE
*****
 27 30 0 0 0
SMALL
GASTEIGER

@<TRIPOS>ATOM
      1 C          61.3082   86.8617    9.8343 C.ar    1  UNL1       -0.0107
      2 C          62.0265   86.4130    8.5963 C.ar    1  UNL1       -0.0003
      3 C          62.9613   85.2415    8.6546 C.ar    1  UNL1        0.0366
      4 C          63.1779   84.5185    9.9509 C.ar    1  UNL1        0.1390
      5 C          62.4596   84.9672   11.1890 C.ar    1  UNL1        0.0366
      6 C          61.5248   86.1388   11.1306 C.ar    1  UNL1       -0.0003
      7 C          60.3734   88.0333    9.7760 C.3     1  UNL1        0.0913
      8 S          60.3422   89.0246   10.9013 S.3     1  UNL1       -0.0709
      9 C          65.6912   92.5104   11.8189 C.2     1  UNL1        0.1223
     10 C          65.6294   91.9199   13.1963 C.2     1  UNL1        0.0343
     11 C          64.5202   90.9777   13.5593 C.2     1  UNL1        0.0232
     12 C          63.4727   90.6260   12.5449 C.2     1  UNL1        0.0975
     13 N          62.2694   89.7331   12.6129 N.2     1  UNL1       -0.2200
     14 C          61.5874   89.7717   11.2774 C.2     1  UNL1        0.1901
     15 N          62.3693   90.6885   10.3841 N.2     1  UNL1       -0.2236
     16 C          63.5345   91.2165   11.1675 C.2     1  UNL1        0.0863
     17 C          64.6437   92.1587   10.8044 C.3     1  UNL1        0.1112
     18 C          66.5008   94.8991   11.1954 C.3     1  UNL1        0.2520
     19 O          66.8005   93.4526   11.4558 O.2     1  UNL1       -0.4753
     20 O          64.1128   83.3469   10.0092 O.3     1  UNL1       -0.4706
     21 C          64.6002   82.8415   11.3347 C.3     1  UNL1        0.2320
     22 C          63.6286   82.2626   12.3200 C.ar    1  UNL1        0.0212
     23 C          63.3042   83.0084   13.5803 C.ar    1  UNL1       -0.0007
     24 C          62.3325   82.4294   14.5656 C.ar    1  UNL1       -0.0002
     25 C          61.6853   81.1045   14.2904 C.ar    1  UNL1       -0.0000
     26 C          62.0096   80.3586   13.0301 C.ar    1  UNL1       -0.0002
     27 C          62.9812   80.9376   12.0449 C.ar    1  UNL1       -0.0007
@<TRIPOS>BOND
     1    18    19    1
     2    19     9    1
     3     9    10    2
     4    10    11    1
     5    11    12    2
     6    12    13    1
     7    13    14    2
     8    14     8    1
     9     8     7    1
    10     7     1    1
    11     1     2   ar
    12     2     3   ar
    13     3     4   ar
    14     4    20    1
    15    20    21    1
    16    21    22    1
    17    22    23   ar
    18    23    24   ar
    19    24    25   ar
    20    25    26   ar
    21    26    27   ar
    22     4     5   ar
    23     5     6   ar
    24    14    15    1
    25    15    16    2
    26    16    17    1
    27    17     9    1
    28    16    12    1
    29     6     1   ar
    30    27    22   ar
@<TRIPOS>MOLECULE
*****
 27 30 0 0 0
SMALL
GASTEIGER

@<TRIPOS>ATOM
      1 C          63.3168   88.4242   16.1920 C.ar    1  UNL1       -0.0107
      2 C          64.1274   88.0132   14.9987 C.ar    1  UNL1       -0.0003
      3 C          64.4518   86.5659   14.7748 C.ar    1  UNL1        0.0366
      4 C          63.9655   85.5296   15.7442 C.ar    1  UNL1        0.1390
      5 C          63.1549   85.9406   16.9375 C.ar    1  UNL1        0.0366
      6 C          62.8305   87.3879   17.1614 C.ar    1  UNL1       -0.0003
      7 C          62.9924   89.8714   16.4160 C.3     1  UNL1        0.0913
      8 S          64.0830   90.9003   16.3698 S.3     1  UNL1       -0.0709
      9 C          66.5635   93.6481   11.0876 C.2     1  UNL1        0.1223
     10 C          65.4976   92.8574   10.3887 C.2     1  UNL1        0.0343
     11 C          64.5697   91.9850   11.1812 C.2     1  UNL1        0.0232
     12 C          64.7077   91.9033   12.6726 C.2     1  UNL1        0.0975
     13 N          63.9447   91.1352   13.7106 N.2     1  UNL1       -0.2200
     14 C          64.5390   91.4512   15.0512 C.2     1  UNL1        0.1901
     15 N          65.6694   92.4146   14.8416 N.2     1  UNL1       -0.2236
     16 C          65.7736   92.6941   13.3715 C.2     1  UNL1        0.0863
     17 C          66.7015   93.5665   12.5790 C.3     1  UNL1        0.1112
     18 C          66.9928   95.8083    9.7095 C.3     1  UNL1        0.2520
     19 O          67.4913   94.5205   10.2952 O.2     1  UNL1       -0.4753
     20 O          64.2899   84.0823   15.5202 O.3     1  UNL1       -0.4706
     21 C          63.2794   83.1776   14.8796 C.3     1  UNL1        0.2320
     22 C          63.4257   82.7918   13.4375 C.ar    1  UNL1        0.0212
     23 C          64.3150   83.5928   12.5333 C.ar    1  UNL1       -0.0007
     24 C          64.4614   83.2069   11.0912 C.ar    1  UNL1       -0.0002
     25 C          63.7183   82.0201   10.5532 C.ar    1  UNL1       -0.0000
     26 C          62.8289   81.2192   11.4574 C.ar    1  UNL1       -0.0002
     27 C          62.6826   81.6050   12.8995 C.ar    1  UNL1       -0.0007
@<TRIPOS>BOND
     1    18    19    1
     2    19     9    1
     3     9    10    2
     4    10    11    1
     5    11    12    2
     6    12    13    1
     7    13    14    2
     8    14     8    1
     9     8     7    1
    10     7     1    1
    11     1     2   ar
    12     2     3   ar
    13     3     4   ar
    14     4    20    1
    15    20    21    1
    16    21    22    1
    17    22    23   ar
    18    23    24   ar
    19    24    25   ar
    20    25    26   ar
    21    26    27   ar
    22     4     5   ar
    23     5     6   ar
    24    14    15    1
    25    15    16    2
    26    16    17    1
    27    17     9    1
    28    16    12    1
    29     6     1   ar
    30    27    22   ar
@<TRIPOS>MOLECULE
*****
 27 30 0 0 0
SMALL
GASTEIGER

@<TRIPOS>ATOM
      1 C          63.6158   86.9610   16.1408 C.ar    1  UNL1       -0.0107
      2 C          64.2481   87.4310   14.8644 C.ar    1  UNL1       -0.0003
      3 C          64.2787   88.8945   14.5372 C.ar    1  UNL1        0.0366
      4 C          63.6770   89.8881   15.4863 C.ar    1  UNL1        0.1390
      5 C          63.0446   89.4181   16.7627 C.ar    1  UNL1        0.0366
      6 C          63.0140   87.9545   17.0900 C.ar    1  UNL1       -0.0003
      7 C          63.5851   85.4975   16.4681 C.3     1  UNL1        0.0913
      8 S          62.5228   84.6188   15.8770 S.3     1  UNL1       -0.0709
      9 C          63.2545   80.9830   10.5997 C.2     1  UNL1        0.1223
     10 C          63.9176   82.2140   10.0567 C.2     1  UNL1        0.0343
     11 C          64.0336   83.4419   10.9103 C.2     1  UNL1        0.0232
     12 C          63.4865   83.4389   12.3070 C.2     1  UNL1        0.0975
     13 N          63.4546   84.4918   13.3748 N.2     1  UNL1       -0.2200
     14 C          62.7718   83.9116   14.5777 C.2     1  UNL1        0.1901
     15 N          62.3816   82.5000   14.2534 N.2     1  UNL1       -0.2236
     16 C          62.8233   82.2079   12.8499 C.2     1  UNL1        0.0863
     17 C          62.7073   80.9800   11.9963 C.3     1  UNL1        0.1112
     18 C          62.6325   78.4739   10.3397 C.3     1  UNL1        0.2520
     19 O          63.1385   79.7551    9.7460 O.2     1  UNL1       -0.4753
     20 O          63.7076   91.3516   15.1590 O.3     1  UNL1       -0.4706
     21 C          64.6958   92.2518   15.8395 C.3     1  UNL1        0.2320
     22 C          66.1292   92.2620   15.3977 C.ar    1  UNL1        0.0212
     23 C          66.4872   91.8408   14.0033 C.ar    1  UNL1       -0.0007
     24 C          67.9207   91.8510   13.5615 C.ar    1  UNL1       -0.0002
     25 C          68.9961   92.2824   14.5141 C.ar    1  UNL1       -0.0000
     26 C          68.6380   92.7035   15.9085 C.ar    1  UNL1       -0.0002
     27 C          67.2047   92.6933   16.3503 C.ar    1  UNL1       -0.0007
@<TRIPOS>BOND
     1    18    19    1
     2    19     9    1
     3     9    10    2
     4    10    11    1
     5    11    12    2
     6    12    13    1
     7    13    14    2
     8    14     8    1
     9     8     7    1
    10     7     1    1
    11     1     2   ar
    12     2     3   ar
    13     3     4   ar
    14     4    20    1
    15    20    21    1
    16    21    22    1
    17    22    23   ar
    18    23    24   ar
    19    24    25   ar
    20    25    26   ar
    21    26    27   ar
    22     4     5   ar
    23     5     6   ar
    24    14    15    1
    25    15    16    2
    26    16    17    1
    27    17     9    1
    28    16    12    1
    29     6     1   ar
    30    27    22   ar
@<TRIPOS>MOLECULE
*****
 27 30 0 0 0
SMALL
GASTEIGER

@<TRIPOS>ATOM
      1 C          63.9192   85.6904   15.7236 C.ar    1  UNL1       -0.0107
      2 C          64.5665   86.5062   14.6440 C.ar    1  UNL1       -0.0003
      3 C          64.4431   88.0010   14.6575 C.ar    1  UNL1        0.0366
      4 C          63.6724   88.6801   15.7507 C.ar    1  UNL1        0.1390
      5 C          63.0252   87.8644   16.8303 C.ar    1  UNL1        0.0366
      6 C          63.1486   86.3695   16.8167 C.ar    1  UNL1       -0.0003
      7 C          64.0426   84.1956   15.7101 C.3     1  UNL1        0.0913
      8 S          63.3294   83.3936   14.6622 S.3     1  UNL1       -0.0709
      9 C          61.5314   86.4649    9.2827 C.2     1  UNL1        0.1223
     10 C          62.5310   85.5521    8.6366 C.2     1  UNL1        0.0343
     11 C          63.2940   84.5654    9.4698 C.2     1  UNL1        0.0232
     12 C          63.0575   84.4916   10.9492 C.2     1  UNL1        0.0975
     13 N          63.6555   83.6273   12.0194 N.2     1  UNL1       -0.2200
     14 C          63.0254   84.0059   13.3269 C.2     1  UNL1        0.1901
     15 N          62.0381   85.1042   13.0649 N.2     1  UNL1       -0.2236
     16 C          62.0579   85.4044   11.5953 C.2     1  UNL1        0.0863
     17 C          61.2949   86.3911   10.7620 C.3     1  UNL1        0.1112
     18 C          60.1862   88.6788    9.0856 C.3     1  UNL1        0.2520
     19 O          60.7684   87.4515    8.4494 O.2     1  UNL1       -0.4753
     20 O          63.5491   90.1750   15.7642 O.3     1  UNL1       -0.4706
     21 C          64.5672   91.0180   15.0551 C.3     1  UNL1        0.2320
     22 C          64.4356   91.2732   13.5829 C.ar    1  UNL1        0.0212
     23 C          63.3668   90.5770   12.7936 C.ar    1  UNL1       -0.0007
     24 C          63.2352   90.8323   11.3213 C.ar    1  UNL1       -0.0002
     25 C          64.1723   91.7838   10.6384 C.ar    1  UNL1       -0.0000
     26 C          65.2411   92.4800   11.4277 C.ar    1  UNL1       -0.0002
     27 C          65.3728   92.2247   12.8999 C.ar    1  UNL1       -0.0007
@<TRIPOS>BOND
     1    18    19    1
     2    19     9    1
     3     9    10    2
     4    10    11    1
     5    11    12    2
     6    12    13    1
     7    13    14    2
     8    14     8    1
     9     8     7    1
    10     7     1    1
    11     1     2   ar
    12     2     3   ar
    13     3     4   ar
    14     4    20    1
    15    20    21    1
    16    21    22    1
    17    22    23   ar
    18    23    24   ar
    19    24    25   ar
    20    25    26   ar
    21    26    27   ar
    22     4     5   ar
    23     5     6   ar
    24    14    15    1
    25    15    16    2
    26    16    17    1
    27    17     9    1
    28    16    12    1
    29     6     1   ar
    30    27    22   ar
@<TRIPOS>MOLECULE
*****
 27 30 0 0 0
SMALL
GASTEIGER

@<TRIPOS>ATOM
      1 C          61.0115   89.4914   10.1734 C.ar    1  UNL1       -0.0107
      2 C          60.5332   89.4159   11.5931 C.ar    1  UNL1       -0.0003
      3 C          61.3991   89.9306   12.7046 C.ar    1  UNL1        0.0366
      4 C          62.7433   90.5207   12.3963 C.ar    1  UNL1        0.1390
      5 C          63.2216   90.5961   10.9766 C.ar    1  UNL1        0.0366
      6 C          62.3556   90.0814    9.8651 C.ar    1  UNL1       -0.0003
      7 C          60.1456   88.9768    9.0619 C.3     1  UNL1        0.0913
      8 S          60.4494   87.6525    8.4262 S.3     1  UNL1       -0.0709
      9 C          63.5373   83.4661   12.2397 C.2     1  UNL1        0.1223
     10 C          64.2568   83.1111   10.9723 C.2     1  UNL1        0.0343
     11 C          63.9175   83.8185    9.6939 C.2     1  UNL1        0.0232
     12 C          62.8587   84.8808    9.6828 C.2     1  UNL1        0.0975
     13 N          62.3133   85.7429    8.5831 N.2     1  UNL1       -0.2200
     14 C          61.2566   86.6307    9.1708 C.2     1  UNL1        0.1901
     15 N          61.1490   86.3173   10.6337 N.2     1  UNL1       -0.2236
     16 C          62.1391   85.2358   10.9501 C.2     1  UNL1        0.0863
     17 C          62.4785   84.5284   12.2286 C.3     1  UNL1        0.1112
     18 C          63.8695   81.2596   13.5705 C.3     1  UNL1        0.2520
     19 O          63.8766   82.7587   13.5181 O.2     1  UNL1       -0.4753
     20 O          63.6092   91.0353   13.5078 O.3     1  UNL1       -0.4706
     21 C          64.6115   90.1289   14.1588 C.3     1  UNL1        0.2320
     22 C          64.1464   88.9846   15.0099 C.ar    1  UNL1        0.0212
     23 C          63.3640   89.2506   16.2617 C.ar    1  UNL1       -0.0007
     24 C          62.8989   88.1063   17.1128 C.ar    1  UNL1       -0.0002
     25 C          63.2162   86.6961   16.7120 C.ar    1  UNL1       -0.0000
     26 C          63.9986   86.4301   15.4602 C.ar    1  UNL1       -0.0002
     27 C          64.4637   87.5744   14.6091 C.ar    1  UNL1       -0.0007
@<TRIPOS>BOND
     1    18    19    1
     2    19     9    1
     3     9    10    2
     4    10    11    1
     5    11    12    2
     6    12    13    1
     7    13    14    2
     8    14     8    1
     9     8     7    1
    10     7     1    1
    11     1     2   ar
    12     2     3   ar
    13     3     4   ar
    14     4    20    1
    15    20    21    1
    16    21    22    1
    17    22    23   ar
    18    23    24   ar
    19    24    25   ar
    20    25    26   ar
    21    26    27   ar
    22     4     5   ar
    23     5     6   ar
    24    14    15    1
    25    15    16    2
    26    16    17    1
    27    17     9    1
    28    16    12    1
    29     6     1   ar
    30    27    22   ar
@<TRIPOS>MOLECULE
*****
 27 30 0 0 0
SMALL
GASTEIGER

@<TRIPOS>ATOM
      1 C          63.8864   83.7173   13.3035 C.ar    1  UNL1       -0.0107
      2 C          64.8342   83.0332   12.3634 C.ar    1  UNL1       -0.0003
      3 C          64.6108   83.1144   10.8824 C.ar    1  UNL1        0.0366
      4 C          63.4397   83.8799   10.3414 C.ar    1  UNL1        0.1390
      5 C          62.4919   84.5640   11.2815 C.ar    1  UNL1        0.0366
      6 C          62.7153   84.4827   12.7626 C.ar    1  UNL1       -0.0003
      7 C          64.1098   83.6360   14.7845 C.3     1  UNL1        0.0913
      8 S          63.3203   84.5122   15.7113 S.3     1  UNL1       -0.0709
      9 C          64.4432   90.8088   14.8764 C.2     1  UNL1        0.1223
     10 C          63.7093   90.9336   16.1786 C.2     1  UNL1        0.0343
     11 C          63.1890   89.7067   16.8669 C.2     1  UNL1        0.0232
     12 C          63.4027   88.3548   16.2531 C.2     1  UNL1        0.0975
     13 N          63.0076   86.9774   16.6964 N.2     1  UNL1       -0.2200
     14 C          63.4973   86.0012   15.6682 C.2     1  UNL1        0.1901
     15 N          64.1951   86.7753   14.5894 N.2     1  UNL1       -0.2236
     16 C          64.1366   88.2300   14.9510 C.2     1  UNL1        0.0863
     17 C          64.6569   89.4569   14.2626 C.3     1  UNL1        0.1112
     18 C          65.0707   92.0680   12.6923 C.3     1  UNL1        0.2520
     19 O          64.9635   92.0358   14.1880 O.2     1  UNL1       -0.4753
     20 O          63.2163   83.9612    8.8604 O.3     1  UNL1       -0.4706
     21 C          63.1113   85.2989    8.1900 C.3     1  UNL1        0.2320
     22 C          61.8725   86.1275    8.3594 C.ar    1  UNL1        0.0212
     23 C          60.6341   85.7926    7.5822 C.ar    1  UNL1       -0.0007
     24 C          59.3952   86.6213    7.7516 C.ar    1  UNL1       -0.0002
     25 C          59.3949   87.7849    8.6983 C.ar    1  UNL1       -0.0000
     26 C          60.6334   88.1198    9.4755 C.ar    1  UNL1       -0.0002
     27 C          61.8721   87.2911    9.3061 C.ar    1  UNL1       -0.0007
@<TRIPOS>BOND
     1    18    19    1
     2    19     9    1
     3     9    10    2
     4    10    11    1
     5    11    12    2
     6    12    13    1
     7    13    14    2
     8    14     8    1
     9     8     7    1
    10     7     1    1
    11     1     2   ar
    12     2     3   ar
    13     3     4   ar
    14     4    20    1
    15    20    21    1
    16    21    22    1
    17    22    23   ar
    18    23    24   ar
    19    24    25   ar
    20    25    26   ar
    21    26    27   ar
    22     4     5   ar
    23     5     6   ar
    24    14    15    1
    25    15    16    2
    26    16    17    1
    27    17     9    1
    28    16    12    1
    29     6     1   ar
    30    27    22   ar
@<TRIPOS>MOLECULE
*****
 27 30 0 0 0
SMALL
GASTEIGER

@<TRIPOS>ATOM
      1 C          63.5575   86.1120   15.9600 C.ar    1  UNL1       -0.0107
      2 C          64.3883   86.7188   14.8684 C.ar    1  UNL1       -0.0003
      3 C          64.5184   88.2096   14.7654 C.ar    1  UNL1        0.0366
      4 C          63.8176   89.0937   15.7541 C.ar    1  UNL1        0.1390
      5 C          62.9868   88.4869   16.8457 C.ar    1  UNL1        0.0366
      6 C          62.8567   86.9960   16.9486 C.ar    1  UNL1       -0.0003
      7 C          63.4274   84.6213   16.0629 C.3     1  UNL1        0.0913
      8 S          63.7824   83.7547   14.8911 S.3     1  UNL1       -0.0709
      9 C          62.6079   85.0703    8.6867 C.2     1  UNL1        0.1223
     10 C          61.5442   85.9602    9.2581 C.2     1  UNL1        0.0343
     11 C          61.3584   86.0482   10.7439 C.2     1  UNL1        0.0232
     12 C          62.2362   85.2463   11.6584 C.2     1  UNL1        0.0975
     13 N          62.2875   85.1293   13.1529 N.2     1  UNL1       -0.2200
     14 C          63.3829   84.1669   13.5052 C.2     1  UNL1        0.1901
     15 N          64.0086   83.6892   12.2284 N.2     1  UNL1       -0.2236
     16 C          63.2999   84.3563   11.0870 C.2     1  UNL1        0.0863
     17 C          63.4857   84.2683    9.6012 C.3     1  UNL1        0.1112
     18 C          61.6487   84.5681    6.3250 C.3     1  UNL1        0.2520
     19 O          62.7938   84.9823    7.2009 O.2     1  UNL1       -0.4753
     20 O          63.9476   90.5844   15.6511 O.3     1  UNL1       -0.4706
     21 C          65.1102   91.1871   14.9195 C.3     1  UNL1        0.2320
     22 C          64.9660   91.5850   13.4805 C.ar    1  UNL1        0.0212
     23 C          65.8468   92.6548   12.9063 C.ar    1  UNL1       -0.0007
     24 C          65.7026   93.0527   11.4672 C.ar    1  UNL1       -0.0002
     25 C          64.6776   92.3808   10.6024 C.ar    1  UNL1       -0.0000
     26 C          63.7968   91.3110   11.1766 C.ar    1  UNL1       -0.0002
     27 C          63.9410   90.9131   12.6156 C.ar    1  UNL1       -0.0007
@<TRIPOS>BOND
     1    18    19    1
     2    19     9    1
     3     9    10    2
     4    10    11    1
     5    11    12    2
     6    12    13    1
     7    13    14    2
     8    14     8    1
     9     8     7    1
    10     7     1    1
    11     1     2   ar
    12     2     3   ar
    13     3     4   ar
    14     4    20    1
    15    20    21    1
    16    21    22    1
    17    22    23   ar
    18    23    24   ar
    19    24    25   ar
    20    25    26   ar
    21    26    27   ar
    22     4     5   ar
    23     5     6   ar
    24    14    15    1
    25    15    16    2
    26    16    17    1
    27    17     9    1
    28    16    12    1
    29     6     1   ar
    30    27    22   ar
