@<TRIPOS>MOLECULE
*****
 36 40 0 0 0
SMALL
GASTEIGER

@<TRIPOS>ATOM
      1 C          64.3519   91.4135   15.9825 C.2     1  UNL1        0.2553
      2 O          63.5204   92.0755   17.0409 O.2     1  UNL1       -0.2720
      3 N          64.0883   89.9857   15.6056 N.am    1  UNL1       -0.2773
      4 C          62.9932   89.2200   16.2871 C.3     1  UNL1        0.0949
      5 C          62.7296   87.7923   15.9101 C.3     1  UNL1        0.0375
      6 C          63.5611   87.1302   14.8518 C.3     1  UNL1        0.0609
      7 C          64.6562   87.8959   14.1703 C.3     1  UNL1        0.0375
      8 C          64.9198   89.3237   14.5472 C.3     1  UNL1        0.0949
      9 N          63.2975   85.7025   14.4748 N.3     1  UNL1       -0.2733
     10 C          62.5123   84.9009   15.4704 C.3     1  UNL1        0.0768
     11 C          62.0897   83.4640   15.3891 C.3     1  UNL1        0.0433
     12 C          62.3477   82.4737   14.2924 C.ar    1  UNL1       -0.0247
     13 C          61.7472   81.1362   14.6092 C.ar    1  UNL1       -0.0045
     14 C          61.8912   80.0009   13.6395 C.ar    1  UNL1       -0.0003
     15 C          62.6357   80.2030   12.3531 C.ar    1  UNL1       -0.0003
     16 C          63.2362   81.5405   12.0363 C.ar    1  UNL1       -0.0045
     17 C          63.0922   82.6759   13.0060 C.ar    1  UNL1       -0.0247
     18 C          63.7625   83.9182   12.4986 C.3     1  UNL1        0.0433
     19 C          63.8539   85.2652   13.1523 C.3     1  UNL1        0.0768
     20 N          66.4938   92.7304   12.5441 N.3     1  UNL1       -0.2688
     21 C          67.1674   93.3398   13.7379 C.3     1  UNL1        0.0756
     22 C          66.6439   93.0641   15.1163 C.3     1  UNL1        0.0590
     23 C          65.4470   92.1791   15.3010 C.3     1  UNL1        0.2042
     24 F          65.7403   92.5226   16.7314 F       1  UNL1       -0.2306
     25 C          64.7735   91.5699   14.1072 C.3     1  UNL1        0.0590
     26 C          65.2968   91.8455   12.7288 C.3     1  UNL1        0.0756
     27 C          67.0171   93.0060   11.1657 C.3     1  UNL1        0.0993
     28 N          68.0963   96.6455    7.6175 N.pl3   1  UNL1       -0.3426
     29 C          67.2057   96.1090    8.6988 C.ar    1  UNL1        0.1251
     30 C          67.5567   94.8258    9.3916 C.ar    1  UNL1        0.0310
     31 C          66.6661   94.2893   10.4729 C.ar    1  UNL1       -0.0018
     32 C          65.4246   95.0361   10.8612 C.ar    1  UNL1        0.0179
     33 C          65.0735   96.3194   10.1683 C.ar    1  UNL1        0.1000
     34 N          65.9641   96.8559    9.0871 N.ar    1  UNL1       -0.2296
     35 H          68.9112   96.1554    7.3626 H       1  UNL1        0.1437
     36 H          67.8659   97.4878    7.1628 H       1  UNL1        0.1437
@<TRIPOS>BOND
     1    28    29    1
     2    29    30   ar
     3    30    31   ar
     4    31    27    1
     5    27    20    1
     6    20    21    1
     7    21    22    1
     8    22    23    1
     9    23    24    1
    10    23     1    1
    11     1     2    2
    12     1     3   am
    13     3     4    1
    14     4     5    1
    15     5     6    1
    16     6     9    1
    17     9    10    1
    18    10    11    1
    19    11    12    1
    20    12    13   ar
    21    13    14   ar
    22    14    15   ar
    23    15    16   ar
    24    16    17   ar
    25    17    18    1
    26    18    19    1
    27     6     7    1
    28     7     8    1
    29    23    25    1
    30    25    26    1
    31    31    32   ar
    32    32    33   ar
    33    33    34   ar
    34    34    29   ar
    35    26    20    1
    36     8     3    1
    37    19     9    1
    38    17    12   ar
    39    28    35    1
    40    28    36    1
@<TRIPOS>MOLECULE
*****
 36 40 0 0 0
SMALL
GASTEIGER

@<TRIPOS>ATOM
      1 C          63.8841   89.2224   14.6924 C.2     1  UNL1        0.2553
      2 O          64.0326   89.4850   16.1617 O.2     1  UNL1       -0.2720
      3 N          63.7241   87.8166   14.1942 N.am    1  UNL1       -0.2773
      4 C          63.7127   86.6735   15.1652 C.3     1  UNL1        0.0949
      5 C          63.5527   85.2677   14.6669 C.3     1  UNL1        0.0375
      6 C          63.4041   85.0051   13.1976 C.3     1  UNL1        0.0609
      7 C          63.4156   86.1483   12.2266 C.3     1  UNL1        0.0375
      8 C          63.5756   87.5540   12.7248 C.3     1  UNL1        0.0949
      9 N          63.2441   83.5994   12.6993 N.3     1  UNL1       -0.2733
     10 C          63.4690   83.4003   11.2297 C.3     1  UNL1        0.0768
     11 C          63.3857   82.1312   10.4344 C.3     1  UNL1        0.0433
     12 C          63.0569   80.7478   10.9122 C.ar    1  UNL1       -0.0247
     13 C          63.0817   79.7584    9.7851 C.ar    1  UNL1       -0.0045
     14 C          62.7798   78.3131   10.0492 C.ar    1  UNL1       -0.0003
     15 C          62.4532   77.8571   11.4404 C.ar    1  UNL1       -0.0003
     16 C          62.4285   78.8465   12.5675 C.ar    1  UNL1       -0.0045
     17 C          62.7304   80.2919   12.3034 C.ar    1  UNL1       -0.0247
     18 C          62.6518   81.1067   13.5604 C.3     1  UNL1        0.0433
     19 C          62.8805   82.5787   13.7366 C.3     1  UNL1        0.0768
     20 N          65.6145   92.6948   12.9338 N.3     1  UNL1       -0.2688
     21 C          64.3132   92.4507   12.2288 C.3     1  UNL1        0.0756
     22 C          63.4538   91.2861   12.6226 C.3     1  UNL1        0.0590
     23 C          63.8956   90.3655   13.7214 C.3     1  UNL1        0.2042
     24 F          62.5903   89.7245   13.3535 F       1  UNL1       -0.2306
     25 C          65.1969   90.6097   14.4264 C.3     1  UNL1        0.0590
     26 C          66.0563   91.7742   14.0326 C.3     1  UNL1        0.0756
     27 C          66.4739   93.8594   12.5401 C.3     1  UNL1        0.0993
     28 N          66.5149   96.8034    8.2586 N.pl3   1  UNL1       -0.3426
     29 C          66.8770   95.5292    8.9625 C.ar    1  UNL1        0.1251
     30 C          66.4944   95.3314   10.3993 C.ar    1  UNL1        0.0310
     31 C          66.8565   94.0572   11.1032 C.ar    1  UNL1       -0.0018
     32 C          67.6012   92.9810   10.3703 C.ar    1  UNL1        0.0179
     33 C          67.9838   93.1789    8.9335 C.ar    1  UNL1        0.1000
     34 N          67.6217   94.4530    8.2295 N.ar    1  UNL1       -0.2296
     35 H          66.0262   97.5098    8.7396 H       1  UNL1        0.1437
     36 H          66.7660   96.9333    7.3155 H       1  UNL1        0.1437
@<TRIPOS>BOND
     1    28    29    1
     2    29    30   ar
     3    30    31   ar
     4    31    27    1
     5    27    20    1
     6    20    21    1
     7    21    22    1
     8    22    23    1
     9    23    24    1
    10    23     1    1
    11     1     2    2
    12     1     3   am
    13     3     4    1
    14     4     5    1
    15     5     6    1
    16     6     9    1
    17     9    10    1
    18    10    11    1
    19    11    12    1
    20    12    13   ar
    21    13    14   ar
    22    14    15   ar
    23    15    16   ar
    24    16    17   ar
    25    17    18    1
    26    18    19    1
    27     6     7    1
    28     7     8    1
    29    23    25    1
    30    25    26    1
    31    31    32   ar
    32    32    33   ar
    33    33    34   ar
    34    34    29   ar
    35    26    20    1
    36     8     3    1
    37    19     9    1
    38    17    12   ar
    39    28    35    1
    40    28    36    1
@<TRIPOS>MOLECULE
*****
 36 40 0 0 0
SMALL
GASTEIGER

@<TRIPOS>ATOM
      1 C          64.0007   90.4728   15.9229 C.2     1  UNL1        0.2553
      2 O          63.4566   90.9084   17.2512 O.2     1  UNL1       -0.2720
      3 N          63.8038   89.0602   15.4586 N.am    1  UNL1       -0.2773
      4 C          63.0629   88.0831   16.3224 C.3     1  UNL1        0.0949
      5 C          62.8661   86.6704   15.8581 C.3     1  UNL1        0.0375
      6 C          63.4101   86.2349   14.5298 C.3     1  UNL1        0.0609
      7 C          64.1510   87.2119   13.6660 C.3     1  UNL1        0.0375
      8 C          64.3479   88.6246   14.1304 C.3     1  UNL1        0.0949
      9 N          63.2133   84.8222   14.0655 N.3     1  UNL1       -0.2733
     10 C          63.5875   84.5479   12.6390 C.3     1  UNL1        0.0768
     11 C          63.5091   83.2543   11.8838 C.3     1  UNL1        0.0433
     12 C          63.0371   81.9155   12.3684 C.ar    1  UNL1       -0.0247
     13 C          63.1217   80.8800   11.2865 C.ar    1  UNL1       -0.0045
     14 C          62.6961   79.4687   11.5641 C.ar    1  UNL1       -0.0003
     15 C          62.1860   79.0929   12.9237 C.ar    1  UNL1       -0.0003
     16 C          62.1014   80.1283   14.0056 C.ar    1  UNL1       -0.0045
     17 C          62.5269   81.5396   13.7280 C.ar    1  UNL1       -0.0247
     18 C          62.3628   82.4098   14.9387 C.3     1  UNL1        0.0433
     19 C          62.6682   83.8707   15.0890 C.3     1  UNL1        0.0768
     20 N          64.7658   92.4633   12.2355 N.3     1  UNL1       -0.2688
     21 C          65.7456   93.0035   13.2346 C.3     1  UNL1        0.0756
     22 C          65.7334   92.4968   14.6464 C.3     1  UNL1        0.0590
     23 C          64.7416   91.4499   15.0591 C.3     1  UNL1        0.2042
     24 F          65.4641   91.6508   16.3582 F       1  UNL1       -0.2306
     25 C          63.7619   90.9098   14.0599 C.3     1  UNL1        0.0590
     26 C          63.7740   91.4164   12.6482 C.3     1  UNL1        0.0756
     27 C          64.7778   92.9699   10.8237 C.3     1  UNL1        0.0993
     28 N          69.6053   92.3750    8.9956 N.pl3   1  UNL1       -0.3426
     29 C          68.4451   93.2630    9.3354 C.ar    1  UNL1        0.1251
     30 C          67.1916   92.6724    9.9097 C.ar    1  UNL1        0.0310
     31 C          66.0314   93.5605   10.2495 C.ar    1  UNL1       -0.0018
     32 C          66.1250   95.0391   10.0152 C.ar    1  UNL1        0.0179
     33 C          67.3786   95.6297    9.4409 C.ar    1  UNL1        0.1000
     34 N          68.5387   94.7416    9.1011 N.ar    1  UNL1       -0.2296
     35 H          69.5439   91.4045    9.1494 H       1  UNL1        0.1437
     36 H          70.4280   92.7626    8.6187 H       1  UNL1        0.1437
@<TRIPOS>BOND
     1    28    29    1
     2    29    30   ar
     3    30    31   ar
     4    31    27    1
     5    27    20    1
     6    20    21    1
     7    21    22    1
     8    22    23    1
     9    23    24    1
    10    23     1    1
    11     1     2    2
    12     1     3   am
    13     3     4    1
    14     4     5    1
    15     5     6    1
    16     6     9    1
    17     9    10    1
    18    10    11    1
    19    11    12    1
    20    12    13   ar
    21    13    14   ar
    22    14    15   ar
    23    15    16   ar
    24    16    17   ar
    25    17    18    1
    26    18    19    1
    27     6     7    1
    28     7     8    1
    29    23    25    1
    30    25    26    1
    31    31    32   ar
    32    32    33   ar
    33    33    34   ar
    34    34    29   ar
    35    26    20    1
    36     8     3    1
    37    19     9    1
    38    17    12   ar
    39    28    35    1
    40    28    36    1
@<TRIPOS>MOLECULE
*****
 36 40 0 0 0
SMALL
GASTEIGER

@<TRIPOS>ATOM
      1 C          62.9777   87.5543   17.0538 C.2     1  UNL1        0.2553
      2 O          62.8303   87.8452   18.5178 O.2     1  UNL1       -0.2720
      3 N          63.4555   88.6269   16.1204 N.am    1  UNL1       -0.2773
      4 C          63.7858   89.9904   16.6511 C.3     1  UNL1        0.0949
      5 C          64.2635   91.0631   15.7177 C.3     1  UNL1        0.0375
      6 C          64.4109   90.7722   14.2536 C.3     1  UNL1        0.0609
      7 C          64.0806   89.4087   13.7229 C.3     1  UNL1        0.0375
      8 C          63.6029   88.3361   14.6563 C.3     1  UNL1        0.0949
      9 N          64.8886   91.8449   13.3202 N.3     1  UNL1       -0.2733
     10 C          65.6170   92.9887   13.9615 C.3     1  UNL1        0.0768
     11 C          66.2114   94.2019   13.3099 C.3     1  UNL1        0.0433
     12 C          66.2243   94.5712   11.8561 C.ar    1  UNL1       -0.0247
     13 C          66.9272   95.8765   11.6284 C.ar    1  UNL1       -0.0045
     14 C          67.0517   96.4290   10.2394 C.ar    1  UNL1       -0.0003
     15 C          66.4733   95.6760    9.0782 C.ar    1  UNL1       -0.0003
     16 C          65.7704   94.3706    9.3058 C.ar    1  UNL1       -0.0045
     17 C          65.6459   93.8182   10.6948 C.ar    1  UNL1       -0.0247
     18 C          64.9118   92.5101   10.7006 C.3     1  UNL1        0.0433
     19 C          64.5748   91.6319   11.8689 C.3     1  UNL1        0.0768
     20 N          63.9590   83.8993   15.0986 N.3     1  UNL1       -0.2688
     21 C          62.5092   83.8175   15.4748 C.3     1  UNL1        0.0756
     22 C          61.8535   84.9633   16.1870 C.3     1  UNL1        0.0590
     23 C          62.6475   86.1908   16.5231 C.3     1  UNL1        0.2042
     24 F          61.3124   86.5825   17.0835 F       1  UNL1       -0.2306
     25 C          64.0972   86.2724   16.1469 C.3     1  UNL1        0.0590
     26 C          64.7530   85.1267   15.4347 C.3     1  UNL1        0.0756
     27 C          64.6148   82.7536   14.3865 C.3     1  UNL1        0.0993
     28 N          63.9369   83.7192    9.3260 N.pl3   1  UNL1       -0.3426
     29 C          63.7787   82.8084   10.5073 C.ar    1  UNL1        0.1251
     30 C          64.2759   83.2364   11.8562 C.ar    1  UNL1        0.0310
     31 C          64.1176   82.3256   13.0375 C.ar    1  UNL1       -0.0018
     32 C          63.4622   80.9868   12.8698 C.ar    1  UNL1        0.0179
     33 C          62.9650   80.5588   11.5209 C.ar    1  UNL1        0.1000
     34 N          63.1233   81.4697   10.3396 N.ar    1  UNL1       -0.2296
     35 H          64.3671   84.5979    9.4361 H       1  UNL1        0.1437
     36 H          63.6106   83.4383    8.4407 H       1  UNL1        0.1437
@<TRIPOS>BOND
     1    28    29    1
     2    29    30   ar
     3    30    31   ar
     4    31    27    1
     5    27    20    1
     6    20    21    1
     7    21    22    1
     8    22    23    1
     9    23    24    1
    10    23     1    1
    11     1     2    2
    12     1     3   am
    13     3     4    1
    14     4     5    1
    15     5     6    1
    16     6     9    1
    17     9    10    1
    18    10    11    1
    19    11    12    1
    20    12    13   ar
    21    13    14   ar
    22    14    15   ar
    23    15    16   ar
    24    16    17   ar
    25    17    18    1
    26    18    19    1
    27     6     7    1
    28     7     8    1
    29    23    25    1
    30    25    26    1
    31    31    32   ar
    32    32    33   ar
    33    33    34   ar
    34    34    29   ar
    35    26    20    1
    36     8     3    1
    37    19     9    1
    38    17    12   ar
    39    28    35    1
    40    28    36    1
@<TRIPOS>MOLECULE
*****
 36 40 0 0 0
SMALL
GASTEIGER

@<TRIPOS>ATOM
      1 C          62.2132   89.8936   12.1101 C.2     1  UNL1        0.2553
      2 O          61.0909   90.6374   11.4490 O.2     1  UNL1       -0.2720
      3 N          62.2941   88.4003   11.9943 N.am    1  UNL1       -0.2773
      4 C          61.2527   87.6508   11.2174 C.3     1  UNL1        0.0949
      5 C          61.3336   86.1574   11.1016 C.3     1  UNL1        0.0375
      6 C          62.4559   85.4136   11.7627 C.3     1  UNL1        0.0609
      7 C          63.4973   86.1631   12.5396 C.3     1  UNL1        0.0375
      8 C          63.4164   87.6565   12.6554 C.3     1  UNL1        0.0949
      9 N          62.5368   83.9203   11.6469 N.3     1  UNL1       -0.2733
     10 C          62.2961   83.1552   12.9145 C.3     1  UNL1        0.0768
     11 C          62.3069   81.6704   13.1270 C.3     1  UNL1        0.0433
     12 C          62.5610   80.5839   12.1245 C.ar    1  UNL1       -0.0247
     13 C          62.4780   79.2257   12.7556 C.ar    1  UNL1       -0.0045
     14 C          62.7011   77.9974   11.9240 C.ar    1  UNL1       -0.0003
     15 C          63.0072   78.1274   10.4613 C.ar    1  UNL1       -0.0003
     16 C          63.0902   79.4857    9.8302 C.ar    1  UNL1       -0.0045
     17 C          62.8671   80.7139   10.6619 C.ar    1  UNL1       -0.0247
     18 C          62.9947   81.9625    9.8405 C.3     1  UNL1        0.0433
     19 C          62.8477   83.3895   10.2788 C.3     1  UNL1        0.0768
     20 N          65.4612   92.6283   12.4511 N.3     1  UNL1       -0.2688
     21 C          65.1739   92.1174   13.8318 C.3     1  UNL1        0.0756
     22 C          64.0706   91.1248   14.0497 C.3     1  UNL1        0.0590
     23 C          63.2546   90.6431   12.8870 C.3     1  UNL1        0.2042
     24 F          62.6057   89.8720   13.9980 F       1  UNL1       -0.2306
     25 C          63.5419   91.1541   11.5063 C.3     1  UNL1        0.0590
     26 C          64.6451   92.1466   11.2883 C.3     1  UNL1        0.0756
     27 C          66.5644   93.6209   12.2331 C.3     1  UNL1        0.0993
     28 N          67.5624   96.7107    8.1763 N.pl3   1  UNL1       -0.3426
     29 C          67.6342   95.3633    8.8316 C.ar    1  UNL1        0.1251
     30 C          67.0634   95.1658   10.2047 C.ar    1  UNL1        0.0310
     31 C          67.1352   93.8184   10.8600 C.ar    1  UNL1       -0.0018
     32 C          67.7776   92.6686   10.1423 C.ar    1  UNL1        0.0179
     33 C          68.3483   92.8661    8.7692 C.ar    1  UNL1        0.1000
     34 N          68.2766   94.2135    8.1139 N.ar    1  UNL1       -0.2296
     35 H          67.1408   97.4654    8.6474 H       1  UNL1        0.1437
     36 H          67.9370   96.8403    7.2751 H       1  UNL1        0.1437
@<TRIPOS>BOND
     1    28    29    1
     2    29    30   ar
     3    30    31   ar
     4    31    27    1
     5    27    20    1
     6    20    21    1
     7    21    22    1
     8    22    23    1
     9    23    24    1
    10    23     1    1
    11     1     2    2
    12     1     3   am
    13     3     4    1
    14     4     5    1
    15     5     6    1
    16     6     9    1
    17     9    10    1
    18    10    11    1
    19    11    12    1
    20    12    13   ar
    21    13    14   ar
    22    14    15   ar
    23    15    16   ar
    24    16    17   ar
    25    17    18    1
    26    18    19    1
    27     6     7    1
    28     7     8    1
    29    23    25    1
    30    25    26    1
    31    31    32   ar
    32    32    33   ar
    33    33    34   ar
    34    34    29   ar
    35    26    20    1
    36     8     3    1
    37    19     9    1
    38    17    12   ar
    39    28    35    1
    40    28    36    1
@<TRIPOS>MOLECULE
*****
 36 40 0 0 0
SMALL
GASTEIGER

@<TRIPOS>ATOM
      1 C          58.6840   89.6380    6.5465 C.2     1  UNL1        0.2553
      2 O          57.2006   89.7585    6.7337 O.2     1  UNL1       -0.2720
      3 N          59.3850   90.4988    5.5377 N.am    1  UNL1       -0.2773
      4 C          58.6027   91.4801    4.7162 C.3     1  UNL1        0.0949
      5 C          59.3037   92.3409    3.7074 C.3     1  UNL1        0.0375
      6 C          60.7871   92.2204    3.5202 C.3     1  UNL1        0.0609
      7 C          61.5694   91.2391    4.3417 C.3     1  UNL1        0.0375
      8 C          60.8684   90.3783    5.3505 C.3     1  UNL1        0.0949
      9 N          61.4881   93.0812    2.5114 N.3     1  UNL1       -0.2733
     10 C          60.6442   94.1334    1.8551 C.3     1  UNL1        0.0768
     11 C          61.0441   95.1402    0.8176 C.3     1  UNL1        0.0433
     12 C          62.3867   95.3435    0.1802 C.ar    1  UNL1       -0.0247
     13 C          62.3567   96.4656   -0.8147 C.ar    1  UNL1       -0.0045
     14 C          63.6009   96.8344   -1.5670 C.ar    1  UNL1       -0.0003
     15 C          64.8751   96.0811   -1.3243 C.ar    1  UNL1       -0.0003
     16 C          64.9051   94.9590   -0.3294 C.ar    1  UNL1       -0.0045
     17 C          63.6609   94.5902    0.4229 C.ar    1  UNL1       -0.0247
     18 C          63.9072   93.4475    1.3629 C.3     1  UNL1        0.0433
     19 C          62.9403   92.7759    2.2924 C.3     1  UNL1        0.0768
     20 N          61.0692   88.5425    9.9014 N.3     1  UNL1       -0.2688
     21 C          60.8954   87.3078    9.0675 C.3     1  UNL1        0.0756
     22 C          60.0939   87.3649    7.8009 C.3     1  UNL1        0.0590
     23 C          59.4663   88.6567    7.3680 C.3     1  UNL1        0.2042
     24 F          59.0209   87.7627    6.2489 F       1  UNL1       -0.2306
     25 C          59.6401   89.8914    8.2018 C.3     1  UNL1        0.0590
     26 C          60.4415   89.8343    9.4685 C.3     1  UNL1        0.0756
     27 C          61.8705   88.4855   11.1680 C.3     1  UNL1        0.0993
     28 N          64.8161   90.9682   14.6552 N.pl3   1  UNL1       -0.3426
     29 C          64.2740   90.8500   13.2615 C.ar    1  UNL1        0.1251
     30 C          63.3433   89.7269   12.9116 C.ar    1  UNL1        0.0310
     31 C          62.8012   89.6086   11.5180 C.ar    1  UNL1       -0.0018
     32 C          63.1898   90.6135   10.4744 C.ar    1  UNL1        0.0179
     33 C          64.1205   91.7366   10.8243 C.ar    1  UNL1        0.1000
     34 N          64.6626   91.8549   12.2179 N.ar    1  UNL1       -0.2296
     35 H          64.5610   90.3087   15.3402 H       1  UNL1        0.1437
     36 H          65.4269   91.7053   14.8849 H       1  UNL1        0.1437
@<TRIPOS>BOND
     1    28    29    1
     2    29    30   ar
     3    30    31   ar
     4    31    27    1
     5    27    20    1
     6    20    21    1
     7    21    22    1
     8    22    23    1
     9    23    24    1
    10    23     1    1
    11     1     2    2
    12     1     3   am
    13     3     4    1
    14     4     5    1
    15     5     6    1
    16     6     9    1
    17     9    10    1
    18    10    11    1
    19    11    12    1
    20    12    13   ar
    21    13    14   ar
    22    14    15   ar
    23    15    16   ar
    24    16    17   ar
    25    17    18    1
    26    18    19    1
    27     6     7    1
    28     7     8    1
    29    23    25    1
    30    25    26    1
    31    31    32   ar
    32    32    33   ar
    33    33    34   ar
    34    34    29   ar
    35    26    20    1
    36     8     3    1
    37    19     9    1
    38    17    12   ar
    39    28    35    1
    40    28    36    1
@<TRIPOS>MOLECULE
*****
 36 40 0 0 0
SMALL
GASTEIGER

@<TRIPOS>ATOM
      1 C          58.8895   89.6054    6.5596 C.2     1  UNL1        0.2553
      2 O          57.3974   89.5861    6.7120 O.2     1  UNL1       -0.2720
      3 N          59.5242   90.4557    5.4993 N.am    1  UNL1       -0.2773
      4 C          58.6668   91.2867    4.5914 C.3     1  UNL1        0.0949
      5 C          59.3014   92.1370    3.5312 C.3     1  UNL1        0.0375
      6 C          60.7935   92.1563    3.3788 C.3     1  UNL1        0.0609
      7 C          61.6509   91.3253    4.2866 C.3     1  UNL1        0.0375
      8 C          61.0162   90.4750    5.3469 C.3     1  UNL1        0.0949
      9 N          61.4282   93.0066    2.3185 N.3     1  UNL1       -0.2733
     10 C          62.8865   92.7573    2.0708 C.3     1  UNL1        0.0768
     11 C          63.7973   93.4337    1.0896 C.3     1  UNL1        0.0433
     12 C          63.4750   94.5262    0.1136 C.ar    1  UNL1       -0.0247
     13 C          64.6810   94.9196   -0.6868 C.ar    1  UNL1       -0.0045
     14 C          64.5742   95.9989   -1.7228 C.ar    1  UNL1       -0.0003
     15 C          63.2613   96.6850   -1.9585 C.ar    1  UNL1       -0.0003
     16 C          62.0552   96.2917   -1.1582 C.ar    1  UNL1       -0.0045
     17 C          62.1620   95.2123   -0.1221 C.ar    1  UNL1       -0.0247
     18 C          60.8473   94.9752    0.5599 C.3     1  UNL1        0.0433
     19 C          60.5206   93.9936    1.6461 C.3     1  UNL1        0.0768
     20 N          61.0324   88.9102   10.1748 N.3     1  UNL1       -0.2688
     21 C          61.2029   87.6866    9.3241 C.3     1  UNL1        0.0756
     22 C          60.5601   87.6187    7.9705 C.3     1  UNL1        0.0590
     23 C          59.7469   88.7744    7.4675 C.3     1  UNL1        0.2042
     24 F          59.6197   87.8394    6.3016 F       1  UNL1       -0.2306
     25 C          59.5765   89.9980    8.3182 C.3     1  UNL1        0.0590
     26 C          60.2192   90.0659    9.6718 C.3     1  UNL1        0.0756
     27 C          61.6751   88.9781   11.5283 C.3     1  UNL1        0.0993
     28 N          65.2534   90.9903   14.7139 N.pl3   1  UNL1       -0.3426
     29 C          64.5840   90.9502   13.3720 C.ar    1  UNL1        0.1251
     30 C          63.4642   89.9842   13.1211 C.ar    1  UNL1        0.0310
     31 C          62.7949   89.9441   11.7793 C.ar    1  UNL1       -0.0018
     32 C          63.2454   90.8700   10.6885 C.ar    1  UNL1        0.0179
     33 C          64.3652   91.8359   10.9395 C.ar    1  UNL1        0.1000
     34 N          65.0345   91.8760   12.2813 N.ar    1  UNL1       -0.2296
     35 H          64.9577   90.3826   15.4298 H       1  UNL1        0.1437
     36 H          65.9883   91.6243   14.8786 H       1  UNL1        0.1437
@<TRIPOS>BOND
     1    28    29    1
     2    29    30   ar
     3    30    31   ar
     4    31    27    1
     5    27    20    1
     6    20    21    1
     7    21    22    1
     8    22    23    1
     9    23    24    1
    10    23     1    1
    11     1     2    2
    12     1     3   am
    13     3     4    1
    14     4     5    1
    15     5     6    1
    16     6     9    1
    17     9    10    1
    18    10    11    1
    19    11    12    1
    20    12    13   ar
    21    13    14   ar
    22    14    15   ar
    23    15    16   ar
    24    16    17   ar
    25    17    18    1
    26    18    19    1
    27     6     7    1
    28     7     8    1
    29    23    25    1
    30    25    26    1
    31    31    32   ar
    32    32    33   ar
    33    33    34   ar
    34    34    29   ar
    35    26    20    1
    36     8     3    1
    37    19     9    1
    38    17    12   ar
    39    28    35    1
    40    28    36    1
