@<TRIPOS>MOLECULE
*****
 18 19 0 0 0
SMALL
GASTEIGER

@<TRIPOS>ATOM
      1 C          65.9857   92.0046   13.3442 C.ar    1  UNL1       -0.0187
      2 C          65.2400   91.1051   14.2848 C.ar    1  UNL1        0.0164
      3 C          63.9649   90.4500   13.8435 C.ar    1  UNL1        0.0986
      4 N          63.4354   90.6944   12.4615 N.ar    1  UNL1       -0.2423
      5 C          64.1811   91.5939   11.5209 C.ar    1  UNL1        0.0990
      6 C          65.4562   92.2490   11.9622 C.ar    1  UNL1        0.0212
      7 C          66.2019   93.1485   11.0215 C.ar    1  UNL1        0.0304
      8 C          67.2887   92.7295   10.0764 C.ar    1  UNL1        0.0067
      9 C          67.7501   93.9470    9.3316 C.ar    1  UNL1        0.0040
     10 C          66.9485   95.1185    9.8164 C.ar    1  UNL1        0.0230
     11 S          65.9916   94.6250   10.8608 S.2     1  UNL1       -0.0899
     12 C          67.0805   96.5348    9.3404 C.3     1  UNL1        0.0987
     13 N          67.9629   96.8534    8.1699 N.3     1  UNL1       -0.3170
     14 H          68.9347   96.6646    8.4154 H       1  UNL1        0.1192
     15 H          67.8595   97.8380    7.9242 H       1  UNL1        0.1192
     16 C          67.2609   92.6597   13.7855 C.3     1  UNL1        0.0265
     17 C          68.7387   93.0539   15.8857 C.3     1  UNL1        0.0004
     18 C          68.0132   92.1181   14.9648 C.3     1  UNL1        0.0047
@<TRIPOS>BOND
     1    17    18    1
     2    18    16    1
     3    16     1    1
     4     1     2   ar
     5     2     3   ar
     6     3     4   ar
     7     4     5   ar
     8     5     6   ar
     9     6     7    1
    10     7     8   ar
    11     8     9   ar
    12     9    10   ar
    13    10    12    1
    14    12    13    1
    15    10    11   ar
    16     6     1   ar
    17    11     7   ar
    18    13    14    1
    19    13    15    1
@<TRIPOS>MOLECULE
*****
 18 19 0 0 0
SMALL
GASTEIGER

@<TRIPOS>ATOM
      1 C          63.1518   85.2178   12.7309 C.ar    1  UNL1       -0.0187
      2 C          63.8958   85.2160   14.0334 C.ar    1  UNL1        0.0164
      3 C          64.3382   86.5117   14.6462 C.ar    1  UNL1        0.0986
      4 N          64.0367   87.8091   13.9565 N.ar    1  UNL1       -0.2423
      5 C          63.2927   87.8109   12.6540 C.ar    1  UNL1        0.0990
      6 C          62.8503   86.5152   12.0412 C.ar    1  UNL1        0.0212
      7 C          62.1063   86.5170   10.7387 C.ar    1  UNL1        0.0304
      8 C          62.5525   85.8575    9.4675 C.ar    1  UNL1        0.0067
      9 C          61.5074   86.1115    8.4219 C.ar    1  UNL1        0.0040
     10 C          60.4153   86.9281    9.0469 C.ar    1  UNL1        0.0230
     11 S          60.7854   87.1787   10.4787 S.2     1  UNL1       -0.0899
     12 C          59.1715   87.4095    8.3605 C.3     1  UNL1        0.0987
     13 N          58.3423   86.4543    7.5542 N.3     1  UNL1       -0.3170
     14 H          58.8755   86.1427    6.7425 H       1  UNL1        0.1192
     15 H          57.4911   86.9222    7.2427 H       1  UNL1        0.1192
     16 C          62.7094   83.9221   12.1182 C.3     1  UNL1        0.0265
     17 C          64.3735   82.9230   10.3912 C.3     1  UNL1        0.0004
     18 C          63.7253   82.8841   11.7434 C.3     1  UNL1        0.0047
@<TRIPOS>BOND
     1    17    18    1
     2    18    16    1
     3    16     1    1
     4     1     2   ar
     5     2     3   ar
     6     3     4   ar
     7     4     5   ar
     8     5     6   ar
     9     6     7    1
    10     7     8   ar
    11     8     9   ar
    12     9    10   ar
    13    10    12    1
    14    12    13    1
    15    10    11   ar
    16     6     1   ar
    17    11     7   ar
    18    13    14    1
    19    13    15    1
@<TRIPOS>MOLECULE
*****
 18 19 0 0 0
SMALL
GASTEIGER

@<TRIPOS>ATOM
      1 C          64.5818   91.5933   12.2152 C.ar    1  UNL1       -0.0187
      2 C          64.0120   90.7832   13.3416 C.ar    1  UNL1        0.0164
      3 C          64.6552   90.8255   14.6961 C.ar    1  UNL1        0.0986
      4 N          65.8682   91.6779   14.9240 N.ar    1  UNL1       -0.2423
      5 C          66.4380   92.4880   13.7976 C.ar    1  UNL1        0.0990
      6 C          65.7948   92.4457   12.4431 C.ar    1  UNL1        0.0212
      7 C          66.3646   93.2559   11.3166 C.ar    1  UNL1        0.0304
      8 C          67.2874   92.7518   10.2468 C.ar    1  UNL1        0.0067
      9 C          67.6048   93.8968    9.3312 C.ar    1  UNL1        0.0040
     10 C          66.8782   95.1085    9.8352 C.ar    1  UNL1        0.0230
     11 S          66.1118   94.7124   11.0622 S.2     1  UNL1       -0.0899
     12 C          66.9122   96.4762    9.2200 C.3     1  UNL1        0.0987
     13 N          67.9537   96.8114    8.1940 N.3     1  UNL1       -0.3170
     14 H          68.8763   96.7968    8.6287 H       1  UNL1        0.1192
     15 H          67.7710   97.7406    7.8151 H       1  UNL1        0.1192
     16 C          63.9386   91.5511   10.8607 C.3     1  UNL1        0.0265
     17 C          62.4941   89.4804   10.2477 C.3     1  UNL1        0.0004
     18 C          62.5931   90.9106   10.6890 C.3     1  UNL1        0.0047
@<TRIPOS>BOND
     1    17    18    1
     2    18    16    1
     3    16     1    1
     4     1     2   ar
     5     2     3   ar
     6     3     4   ar
     7     4     5   ar
     8     5     6   ar
     9     6     7    1
    10     7     8   ar
    11     8     9   ar
    12     9    10   ar
    13    10    12    1
    14    12    13    1
    15    10    11   ar
    16     6     1   ar
    17    11     7   ar
    18    13    14    1
    19    13    15    1
@<TRIPOS>MOLECULE
*****
 18 19 0 0 0
SMALL
GASTEIGER

@<TRIPOS>ATOM
      1 C          63.1210   84.7503    9.4989 C.ar    1  UNL1       -0.0187
      2 C          63.9254   83.5115    9.7598 C.ar    1  UNL1        0.0164
      3 C          63.9966   82.9414   11.1454 C.ar    1  UNL1        0.0986
      4 N          63.2632   83.6100   12.2701 N.ar    1  UNL1       -0.2423
      5 C          62.4588   84.8488   12.0092 C.ar    1  UNL1        0.0990
      6 C          62.3876   85.4190   10.6236 C.ar    1  UNL1        0.0212
      7 C          61.5831   86.6578   10.3627 C.ar    1  UNL1        0.0304
      8 C          60.3727   86.7539    9.4820 C.ar    1  UNL1        0.0067
      9 C          59.8892   88.1735    9.5118 C.ar    1  UNL1        0.0040
     10 C          60.8009   88.9549   10.4109 C.ar    1  UNL1        0.0230
     11 S          61.8477   88.0181   10.9368 S.2     1  UNL1       -0.0899
     12 C          60.6859   90.4164   10.7284 C.3     1  UNL1        0.0987
     13 N          59.4611   90.9399   11.4181 N.3     1  UNL1       -0.3170
     14 H          58.6537   90.8346   10.8037 H       1  UNL1        0.1192
     15 H          59.5921   91.9265   11.6414 H       1  UNL1        0.1192
     16 C          63.0498   85.3204    8.1133 C.3     1  UNL1        0.0265
     17 C          62.4055   84.3891    5.7750 C.3     1  UNL1        0.0004
     18 C          62.0077   84.8291    7.1528 C.3     1  UNL1        0.0047
@<TRIPOS>BOND
     1    17    18    1
     2    18    16    1
     3    16     1    1
     4     1     2   ar
     5     2     3   ar
     6     3     4   ar
     7     4     5   ar
     8     5     6   ar
     9     6     7    1
    10     7     8   ar
    11     8     9   ar
    12     9    10   ar
    13    10    12    1
    14    12    13    1
    15    10    11   ar
    16     6     1   ar
    17    11     7   ar
    18    13    14    1
    19    13    15    1
@<TRIPOS>MOLECULE
*****
 18 19 0 0 0
SMALL
GASTEIGER

@<TRIPOS>ATOM
      1 C          61.2580   88.1248    9.3461 C.ar    1  UNL1       -0.0187
      2 C          60.3387   89.1149    8.6946 C.ar    1  UNL1        0.0164
      3 C          59.2738   88.6411    7.7504 C.ar    1  UNL1        0.0986
      4 N          59.1283   87.1772    7.4577 N.ar    1  UNL1       -0.2423
      5 C          60.0476   86.1870    8.1092 C.ar    1  UNL1        0.0990
      6 C          61.1125   86.6609    9.0534 C.ar    1  UNL1        0.0212
      7 C          62.0318   85.6707    9.7049 C.ar    1  UNL1        0.0304
      8 C          63.1010   84.8749    9.0168 C.ar    1  UNL1        0.0067
      9 C          63.7733   84.0149   10.0456 C.ar    1  UNL1        0.0040
     10 C          63.1196   84.2791   11.3696 C.ar    1  UNL1        0.0230
     11 S          62.0433   85.3024   11.1590 S.2     1  UNL1       -0.0899
     12 C          63.4790   83.6333   12.6748 C.3     1  UNL1        0.0987
     13 N          64.8687   83.7716   13.2224 N.3     1  UNL1       -0.3170
     14 H          65.5257   83.2912   12.6076 H       1  UNL1        0.1192
     15 H          64.9098   83.3579   14.1538 H       1  UNL1        0.1192
     16 C          62.3229   88.5986   10.2904 C.3     1  UNL1        0.0265
     17 C          63.1172   91.0722   10.2777 C.3     1  UNL1        0.0004
     18 C          62.2598   89.9861   10.8567 C.3     1  UNL1        0.0047
@<TRIPOS>BOND
     1    17    18    1
     2    18    16    1
     3    16     1    1
     4     1     2   ar
     5     2     3   ar
     6     3     4   ar
     7     4     5   ar
     8     5     6   ar
     9     6     7    1
    10     7     8   ar
    11     8     9   ar
    12     9    10   ar
    13    10    12    1
    14    12    13    1
    15    10    11   ar
    16     6     1   ar
    17    11     7   ar
    18    13    14    1
    19    13    15    1
@<TRIPOS>MOLECULE
*****
 18 19 0 0 0
SMALL
GASTEIGER

@<TRIPOS>ATOM
      1 C          63.4770   82.3097   11.9235 C.ar    1  UNL1       -0.0187
      2 C          63.1095   81.0822   11.1437 C.ar    1  UNL1        0.0164
      3 C          62.5792   79.8726   11.8548 C.ar    1  UNL1        0.0986
      4 N          62.4163   79.8906   13.3458 N.ar    1  UNL1       -0.2423
      5 C          62.7837   81.1181   14.1257 C.ar    1  UNL1        0.0990
      6 C          63.3141   82.3276   13.4145 C.ar    1  UNL1        0.0212
      7 C          63.6816   83.5552   14.1944 C.ar    1  UNL1        0.0304
      8 C          64.9624   84.3263   14.0730 C.ar    1  UNL1        0.0067
      9 C          64.9051   85.4748   15.0362 C.ar    1  UNL1        0.0040
     10 C          63.5888   85.4135   15.7529 C.ar    1  UNL1        0.0230
     11 S          62.8326   84.2271   15.2326 S.2     1  UNL1       -0.0899
     12 C          63.1124   86.3705   16.8051 C.3     1  UNL1        0.0987
     13 N          61.7245   86.2448   17.3601 N.3     1  UNL1       -0.3170
     14 H          61.0453   86.4461   16.6262 H       1  UNL1        0.1192
     15 H          61.6034   86.9072   18.1263 H       1  UNL1        0.1192
     16 C          64.0074   83.5192   11.2123 C.3     1  UNL1        0.0265
     17 C          63.1617   84.8217    9.1295 C.3     1  UNL1        0.0004
     18 C          63.8640   83.6370    9.7239 C.3     1  UNL1        0.0047
@<TRIPOS>BOND
     1    17    18    1
     2    18    16    1
     3    16     1    1
     4     1     2   ar
     5     2     3   ar
     6     3     4   ar
     7     4     5   ar
     8     5     6   ar
     9     6     7    1
    10     7     8   ar
    11     8     9   ar
    12     9    10   ar
    13    10    12    1
    14    12    13    1
    15    10    11   ar
    16     6     1   ar
    17    11     7   ar
    18    13    14    1
    19    13    15    1
@<TRIPOS>MOLECULE
*****
 18 19 0 0 0
SMALL
GASTEIGER

@<TRIPOS>ATOM
      1 C          61.3029   87.0603    9.4104 C.ar    1  UNL1       -0.0187
      2 C          60.4424   86.2215    8.5127 C.ar    1  UNL1        0.0164
      3 C          59.3761   86.8672    7.6783 C.ar    1  UNL1        0.0986
      4 N          59.1704   88.3516    7.7417 N.ar    1  UNL1       -0.2423
      5 C          60.0309   89.1904    8.6394 C.ar    1  UNL1        0.0990
      6 C          61.0972   88.5447    9.4737 C.ar    1  UNL1        0.0212
      7 C          61.9578   89.3835   10.3714 C.ar    1  UNL1        0.0304
      8 C          62.8384   90.5185    9.9400 C.ar    1  UNL1        0.0067
      9 C          63.5137   91.0711   11.1601 C.ar    1  UNL1        0.0040
     10 C          63.0503   90.2775   12.3457 C.ar    1  UNL1        0.0230
     11 S          62.0887   89.2346   11.8583 S.2     1  UNL1       -0.0899
     12 C          63.4741   90.4897   13.7689 C.3     1  UNL1        0.0987
     13 N          62.7159   89.8316   14.8833 N.3     1  UNL1       -0.3170
     14 H          61.7726   90.2171   14.9268 H       1  UNL1        0.1192
     15 H          63.1944   90.0029   15.7677 H       1  UNL1        0.1192
     16 C          62.3692   86.4146   10.2447 C.3     1  UNL1        0.0265
     17 C          62.7473   84.1459   11.4531 C.3     1  UNL1        0.0004
     18 C          61.9926   85.4349   11.3163 C.3     1  UNL1        0.0047
@<TRIPOS>BOND
     1    17    18    1
     2    18    16    1
     3    16     1    1
     4     1     2   ar
     5     2     3   ar
     6     3     4   ar
     7     4     5   ar
     8     5     6   ar
     9     6     7    1
    10     7     8   ar
    11     8     9   ar
    12     9    10   ar
    13    10    12    1
    14    12    13    1
    15    10    11   ar
    16     6     1   ar
    17    11     7   ar
    18    13    14    1
    19    13    15    1
@<TRIPOS>MOLECULE
*****
 18 19 0 0 0
SMALL
GASTEIGER

@<TRIPOS>ATOM
      1 C          65.4657   91.5773   13.6109 C.ar    1  UNL1       -0.0187
      2 C          65.8552   92.4194   12.4323 C.ar    1  UNL1        0.0164
      3 C          65.0887   92.3116   11.1474 C.ar    1  UNL1        0.0986
      4 N          63.9327   91.3617   11.0412 N.ar    1  UNL1       -0.2423
      5 C          63.5432   90.5196   12.2198 C.ar    1  UNL1        0.0990
      6 C          64.3097   90.6274   13.5047 C.ar    1  UNL1        0.0212
      7 C          63.9202   89.7853   14.6833 C.ar    1  UNL1        0.0304
      8 C          63.4336   90.2938   16.0079 C.ar    1  UNL1        0.0067
      9 C          63.1616   89.1095   16.8875 C.ar    1  UNL1        0.0040
     10 C          63.4801   87.8691   16.1065 C.ar    1  UNL1        0.0230
     11 S          63.9490   88.2868   14.7442 S.2     1  UNL1       -0.0899
     12 C          63.3522   86.4587   16.6009 C.3     1  UNL1        0.0987
     13 N          62.0494   85.9781   17.1680 N.3     1  UNL1       -0.3170
     14 H          61.8488   86.4809   18.0325 H       1  UNL1        0.1192
     15 H          62.1113   84.9787   17.3625 H       1  UNL1        0.1192
     16 C          66.2322   91.6852   14.8957 C.3     1  UNL1        0.0265
     17 C          68.4561   92.2194   16.1283 C.3     1  UNL1        0.0004
     18 C          67.5902   92.3221   14.9078 C.3     1  UNL1        0.0047
@<TRIPOS>BOND
     1    17    18    1
     2    18    16    1
     3    16     1    1
     4     1     2   ar
     5     2     3   ar
     6     3     4   ar
     7     4     5   ar
     8     5     6   ar
     9     6     7    1
    10     7     8   ar
    11     8     9   ar
    12     9    10   ar
    13    10    12    1
    14    12    13    1
    15    10    11   ar
    16     6     1   ar
    17    11     7   ar
    18    13    14    1
    19    13    15    1
@<TRIPOS>MOLECULE
*****
 18 19 0 0 0
SMALL
GASTEIGER

@<TRIPOS>ATOM
      1 C          60.4181   88.7133    9.6807 C.ar    1  UNL1       -0.0187
      2 C          59.6177   87.7059    8.9098 C.ar    1  UNL1        0.0164
      3 C          60.2526   86.4189    8.4730 C.ar    1  UNL1        0.0986
      4 N          61.6879   86.1395    8.8072 N.ar    1  UNL1       -0.2423
      5 C          62.4883   87.1470    9.5781 C.ar    1  UNL1        0.0990
      6 C          61.8534   88.4339   10.0148 C.ar    1  UNL1        0.0212
      7 C          62.6539   89.4414   10.7857 C.ar    1  UNL1        0.0304
      8 C          63.2319   90.7131   10.2392 C.ar    1  UNL1        0.0067
      9 C          63.9521   91.4116   11.3542 C.ar    1  UNL1        0.0040
     10 C          63.8194   90.5716   12.5899 C.ar    1  UNL1        0.0230
     11 S          63.0170   89.3539   12.2385 S.2     1  UNL1       -0.0899
     12 C          64.3889   90.8929   13.9398 C.3     1  UNL1        0.0987
     13 N          63.4776   91.2901   15.0631 N.3     1  UNL1       -0.3170
     14 H          63.0396   92.1851   14.8452 H       1  UNL1        0.1192
     15 H          64.0172   91.3764   15.9244 H       1  UNL1        0.1192
     16 C          59.7832   90.0002   10.1174 C.3     1  UNL1        0.0265
     17 C          59.0488   89.1248   12.4507 C.3     1  UNL1        0.0004
     18 C          59.5141   90.2480   11.5721 C.3     1  UNL1        0.0047
@<TRIPOS>BOND
     1    17    18    1
     2    18    16    1
     3    16     1    1
     4     1     2   ar
     5     2     3   ar
     6     3     4   ar
     7     4     5   ar
     8     5     6   ar
     9     6     7    1
    10     7     8   ar
    11     8     9   ar
    12     9    10   ar
    13    10    12    1
    14    12    13    1
    15    10    11   ar
    16     6     1   ar
    17    11     7   ar
    18    13    14    1
    19    13    15    1
