@<TRIPOS>MOLECULE
*****
 33 36 0 0 0
SMALL
GASTEIGER

@<TRIPOS>ATOM
      1 C          61.8484   90.0055   11.8461 C.ar    1  UNL1        0.0764
      2 C          62.5559   90.8210   10.8048 C.ar    1  UNL1        0.0176
      3 C          63.7696   91.6207   11.1755 C.ar    1  UNL1        0.0173
      4 C          64.2756   91.6050   12.5874 C.ar    1  UNL1        0.0664
      5 C          63.5681   90.7895   13.6287 C.ar    1  UNL1        0.0723
      6 N          62.3545   89.9898   13.2580 N.ar    1  UNL1       -0.2511
      7 C          64.0742   90.7738   15.0406 C.3     1  UNL1        0.0489
      8 C          65.2878   91.5735   15.4113 C.3     1  UNL1        0.0282
      9 C          65.9955   92.3891   14.3700 C.3     1  UNL1        0.0974
     10 N          65.4894   92.4048   12.9581 N.pl3   1  UNL1       -0.2713
     11 C          66.1969   93.2203   11.9168 C.ar    1  UNL1        0.1386
     12 C          66.0603   94.7140   11.9134 C.ar    1  UNL1        0.0553
     13 C          66.7679   95.5295   10.8720 C.ar    1  UNL1        0.1034
     14 N          67.6120   94.8513    9.8341 N.ar    1  UNL1       -0.2217
     15 C          67.7486   93.3575    9.8375 C.ar    1  UNL1        0.2363
     16 N          67.0411   92.5420   10.8788 N.ar    1  UNL1       -0.2080
     17 C          68.5928   92.6792    8.7996 C.3     1  UNL1        0.4523
     18 F          69.4370   92.0009    7.7616 F       1  UNL1       -0.1632
     19 F          68.1241   93.6671    7.7728 F       1  UNL1       -0.1632
     20 F          69.0615   91.6913    9.8264 F       1  UNL1       -0.1632
     21 C          59.4071   89.2634   12.3354 C.3     1  UNL1        0.0278
     22 C          60.6347   89.2057   11.4754 C.3     1  UNL1        0.1121
     23 N          60.6486   88.3482   10.2448 N.am    1  UNL1       -0.2973
     24 C          61.5732   87.1700   10.1620 C.2     1  UNL1        0.2461
     25 O          62.4839   86.8492   11.3100 O.2     1  UNL1       -0.2701
     26 H          60.0509   88.5588    9.4913 H       1  UNL1        0.1500
     27 C          61.5872   86.3125    8.9314 C.ar    1  UNL1        0.0535
     28 C          62.8495   85.6162    8.5167 C.ar    1  UNL1        0.0068
     29 C          62.8634   84.7587    7.2861 C.ar    1  UNL1        0.0298
     30 C          61.6151   84.5976    6.4700 C.ar    1  UNL1        0.1401
     31 F          61.6291   83.7401    5.2394 F       1  UNL1       -0.2042
     32 C          60.3529   85.2939    6.8847 C.ar    1  UNL1        0.0298
     33 C          60.3390   86.1514    8.1154 C.ar    1  UNL1        0.0068
@<TRIPOS>BOND
     1    22    21    1
     2    22    23    1
     3    23    24   am
     4    24    25    2
     5    24    27    1
     6    27    28   ar
     7    28    29   ar
     8    29    30   ar
     9    30    31    1
    10    30    32   ar
    11    32    33   ar
    12    22     1    1
    13     1     2   ar
    14     2     3   ar
    15     3     4   ar
    16     4     5   ar
    17     5     6   ar
    18     5     7    1
    19     7     8    1
    20     8     9    1
    21     9    10    1
    22    10    11    1
    23    11    12   ar
    24    12    13   ar
    25    13    14   ar
    26    14    15   ar
    27    15    17    1
    28    17    18    1
    29    17    19    1
    30    17    20    1
    31    15    16   ar
    32    33    27   ar
    33     6     1   ar
    34    16    11   ar
    35    10     4    1
    36    23    26    1
@<TRIPOS>MOLECULE
*****
 33 36 0 0 0
SMALL
GASTEIGER

@<TRIPOS>ATOM
      1 C          62.5064   89.4830   11.9050 C.ar    1  UNL1        0.0764
      2 C          63.1666   90.2935   10.8294 C.ar    1  UNL1        0.0176
      3 C          64.1858   91.3326   11.1921 C.ar    1  UNL1        0.0173
      4 C          64.5448   91.5611   12.6304 C.ar    1  UNL1        0.0664
      5 C          63.8845   90.7506   13.7061 C.ar    1  UNL1        0.0723
      6 N          62.8653   89.7116   13.3434 N.ar    1  UNL1       -0.2511
      7 C          64.2435   90.9791   15.1445 C.3     1  UNL1        0.0489
      8 C          65.2627   92.0181   15.5072 C.3     1  UNL1        0.0282
      9 C          65.9230   92.8287   14.4315 C.3     1  UNL1        0.0974
     10 N          65.5641   92.6002   12.9931 N.pl3   1  UNL1       -0.2713
     11 C          66.2243   93.4107   11.9175 C.ar    1  UNL1        0.1386
     12 C          66.0580   94.9012   11.8926 C.ar    1  UNL1        0.0553
     13 C          66.7183   95.7117   10.8169 C.ar    1  UNL1        0.1034
     14 N          67.5449   95.0317    9.7661 N.ar    1  UNL1       -0.2217
     15 C          67.7112   93.5412    9.7909 C.ar    1  UNL1        0.2363
     16 N          67.0509   92.7307   10.8666 N.ar    1  UNL1       -0.2080
     17 C          68.5378   92.8611    8.7401 C.3     1  UNL1        0.4523
     18 F          69.3644   92.1811    7.6892 F       1  UNL1       -0.1632
     19 F          68.0463   93.8429    7.7181 F       1  UNL1       -0.1632
     20 F          69.0292   91.8793    9.7621 F       1  UNL1       -0.1632
     21 C          60.1911   88.8539   10.9083 C.3     1  UNL1        0.0278
     22 C          61.4871   88.4439   11.5423 C.3     1  UNL1        0.1121
     23 N          61.7640   86.9949   11.8137 N.am    1  UNL1       -0.2973
     24 C          62.3815   86.1372   10.7493 C.2     1  UNL1        0.2461
     25 O          62.7220   86.7284    9.4134 O.2     1  UNL1       -0.2701
     26 H          61.5405   86.6069   12.6905 H       1  UNL1        0.1500
     27 C          62.6584   84.6881   11.0207 C.ar    1  UNL1        0.0535
     28 C          62.2359   84.0749   12.3229 C.ar    1  UNL1        0.0068
     29 C          62.5128   82.6259   12.5943 C.ar    1  UNL1        0.0298
     30 C          63.2122   81.7901   11.5635 C.ar    1  UNL1        0.1401
     31 F          63.4891   80.3411   11.8349 F       1  UNL1       -0.2042
     32 C          63.6346   82.4033   10.2615 C.ar    1  UNL1        0.0298
     33 C          63.3577   83.8524    9.9901 C.ar    1  UNL1        0.0068
@<TRIPOS>BOND
     1    22    21    1
     2    22    23    1
     3    23    24   am
     4    24    25    2
     5    24    27    1
     6    27    28   ar
     7    28    29   ar
     8    29    30   ar
     9    30    31    1
    10    30    32   ar
    11    32    33   ar
    12    22     1    1
    13     1     2   ar
    14     2     3   ar
    15     3     4   ar
    16     4     5   ar
    17     5     6   ar
    18     5     7    1
    19     7     8    1
    20     8     9    1
    21     9    10    1
    22    10    11    1
    23    11    12   ar
    24    12    13   ar
    25    13    14   ar
    26    14    15   ar
    27    15    17    1
    28    17    18    1
    29    17    19    1
    30    17    20    1
    31    15    16   ar
    32    33    27   ar
    33     6     1   ar
    34    16    11   ar
    35    10     4    1
    36    23    26    1
@<TRIPOS>MOLECULE
*****
 33 36 0 0 0
SMALL
GASTEIGER

@<TRIPOS>ATOM
      1 C          64.0354   89.7746   13.2935 C.ar    1  UNL1        0.0764
      2 C          64.3170   88.5534   14.1177 C.ar    1  UNL1        0.0176
      3 C          63.8040   87.2152   13.6749 C.ar    1  UNL1        0.0173
      4 C          63.0094   87.0983   12.4080 C.ar    1  UNL1        0.0664
      5 C          62.7279   88.3195   11.5839 C.ar    1  UNL1        0.0723
      6 N          63.2409   89.6577   12.0266 N.ar    1  UNL1       -0.2511
      7 C          61.9333   88.2026   10.3170 C.3     1  UNL1        0.0489
      8 C          61.4203   86.8644    9.8742 C.3     1  UNL1        0.0282
      9 C          61.7019   85.6431   10.6984 C.3     1  UNL1        0.0974
     10 N          62.4964   85.7600   11.9653 N.pl3   1  UNL1       -0.2713
     11 C          62.7780   84.5388   12.7894 C.ar    1  UNL1        0.1386
     12 C          63.2004   84.6815   14.2216 C.ar    1  UNL1        0.0553
     13 C          63.4819   83.4601   15.0457 C.ar    1  UNL1        0.1034
     14 N          63.3412   82.0962   14.4376 N.ar    1  UNL1       -0.2217
     15 C          62.9188   81.9535   13.0054 C.ar    1  UNL1        0.2363
     16 N          62.6372   83.1747   12.1813 N.ar    1  UNL1       -0.2080
     17 C          62.7780   80.5896   12.3973 C.3     1  UNL1        0.4523
     18 F          62.6372   79.2256   11.7892 F       1  UNL1       -0.1632
     19 F          62.8839   81.1897   11.0267 F       1  UNL1       -0.1632
     20 F          62.6722   79.9894   13.7679 F       1  UNL1       -0.1632
     21 C          64.7338   91.3993   15.1969 C.3     1  UNL1        0.0278
     22 C          64.5484   91.1129   13.7363 C.3     1  UNL1        0.1121
     23 N          64.8760   92.1648   12.7183 N.am    1  UNL1       -0.2973
     24 C          66.3070   92.4644   12.3832 C.2     1  UNL1        0.2461
     25 O          67.4106   91.7121   13.0661 O.2     1  UNL1       -0.2701
     26 H          64.1517   92.6585   12.2701 H       1  UNL1        0.1500
     27 C          66.6345   93.5162   11.3652 C.ar    1  UNL1        0.0535
     28 C          67.3411   93.1384   10.0970 C.ar    1  UNL1        0.0068
     29 C          67.6687   94.1903    9.0791 C.ar    1  UNL1        0.0298
     30 C          67.2896   95.6199    9.3292 C.ar    1  UNL1        0.1401
     31 F          67.6172   96.6718    8.3112 F       1  UNL1       -0.2042
     32 C          66.5831   95.9977   10.5973 C.ar    1  UNL1        0.0298
     33 C          66.2555   94.9458   11.6153 C.ar    1  UNL1        0.0068
@<TRIPOS>BOND
     1    22    21    1
     2    22    23    1
     3    23    24   am
     4    24    25    2
     5    24    27    1
     6    27    28   ar
     7    28    29   ar
     8    29    30   ar
     9    30    31    1
    10    30    32   ar
    11    32    33   ar
    12    22     1    1
    13     1     2   ar
    14     2     3   ar
    15     3     4   ar
    16     4     5   ar
    17     5     6   ar
    18     5     7    1
    19     7     8    1
    20     8     9    1
    21     9    10    1
    22    10    11    1
    23    11    12   ar
    24    12    13   ar
    25    13    14   ar
    26    14    15   ar
    27    15    17    1
    28    17    18    1
    29    17    19    1
    30    17    20    1
    31    15    16   ar
    32    33    27   ar
    33     6     1   ar
    34    16    11   ar
    35    10     4    1
    36    23    26    1
@<TRIPOS>MOLECULE
*****
 33 36 0 0 0
SMALL
GASTEIGER

@<TRIPOS>ATOM
      1 C          63.8943   87.3562   14.1345 C.ar    1  UNL1        0.0764
      2 C          64.7724   88.4756   14.6097 C.ar    1  UNL1        0.0176
      3 C          64.8392   89.7575   13.8337 C.ar    1  UNL1        0.0173
      4 C          64.0281   89.9199   12.5825 C.ar    1  UNL1        0.0664
      5 C          63.1500   88.8005   12.1073 C.ar    1  UNL1        0.0723
      6 N          63.0832   87.5186   12.8833 N.ar    1  UNL1       -0.2511
      7 C          62.3388   88.9630   10.8560 C.3     1  UNL1        0.0489
      8 C          62.4057   90.2448   10.0800 C.3     1  UNL1        0.0282
      9 C          63.2838   91.3644   10.5552 C.3     1  UNL1        0.0974
     10 N          64.0950   91.2019   11.8064 N.pl3   1  UNL1       -0.2713
     11 C          64.9730   92.3213   12.2816 C.ar    1  UNL1        0.1386
     12 C          65.2218   93.5068   11.3968 C.ar    1  UNL1        0.0553
     13 C          66.0999   94.6262   11.8721 C.ar    1  UNL1        0.1034
     14 N          66.7292   94.5602   13.2321 N.ar    1  UNL1       -0.2217
     15 C          66.4804   93.3748   14.1169 C.ar    1  UNL1        0.2363
     16 N          65.6023   92.2554   13.6417 N.ar    1  UNL1       -0.2080
     17 C          67.1097   93.3088   15.4769 C.3     1  UNL1        0.4523
     18 F          67.7389   93.2427   16.8370 F       1  UNL1       -0.1632
     19 F          65.7944   92.8919   16.0652 F       1  UNL1       -0.1632
     20 F          68.4250   93.7256   14.8885 F       1  UNL1       -0.1632
     21 C          63.7537   86.1072   16.4084 C.3     1  UNL1        0.0278
     22 C          63.8274   86.0742   14.9106 C.3     1  UNL1        0.1121
     23 N          63.8343   84.7593   14.1887 N.am    1  UNL1       -0.2973
     24 C          62.5959   83.9135   14.1592 C.2     1  UNL1        0.2461
     25 O          61.3505   84.3826   14.8516 O.2     1  UNL1       -0.2701
     26 H          64.6516   84.4515   13.7343 H       1  UNL1        0.1500
     27 C          62.6027   82.5986   13.4374 C.ar    1  UNL1        0.0535
     28 C          63.0509   82.5304   12.0075 C.ar    1  UNL1        0.0068
     29 C          63.0577   81.2155   11.2856 C.ar    1  UNL1        0.0298
     30 C          62.6164   79.9689   11.9937 C.ar    1  UNL1        0.1401
     31 F          62.6232   78.6540   11.2719 F       1  UNL1       -0.2042
     32 C          62.1682   80.0372   13.4235 C.ar    1  UNL1        0.0298
     33 C          62.1614   81.3521   14.1454 C.ar    1  UNL1        0.0068
@<TRIPOS>BOND
     1    22    21    1
     2    22    23    1
     3    23    24   am
     4    24    25    2
     5    24    27    1
     6    27    28   ar
     7    28    29   ar
     8    29    30   ar
     9    30    31    1
    10    30    32   ar
    11    32    33   ar
    12    22     1    1
    13     1     2   ar
    14     2     3   ar
    15     3     4   ar
    16     4     5   ar
    17     5     6   ar
    18     5     7    1
    19     7     8    1
    20     8     9    1
    21     9    10    1
    22    10    11    1
    23    11    12   ar
    24    12    13   ar
    25    13    14   ar
    26    14    15   ar
    27    15    17    1
    28    17    18    1
    29    17    19    1
    30    17    20    1
    31    15    16   ar
    32    33    27   ar
    33     6     1   ar
    34    16    11   ar
    35    10     4    1
    36    23    26    1
@<TRIPOS>MOLECULE
*****
 33 36 0 0 0
SMALL
GASTEIGER

@<TRIPOS>ATOM
      1 C          62.7119   88.8878   11.7127 C.ar    1  UNL1        0.0764
      2 C          62.3759   87.6030   11.0154 C.ar    1  UNL1        0.0176
      3 C          62.7549   86.2913   11.6365 C.ar    1  UNL1        0.0173
      4 C          63.4699   86.2645   12.9549 C.ar    1  UNL1        0.0664
      5 C          63.8058   87.5493   13.6522 C.ar    1  UNL1        0.0723
      6 N          63.4268   88.8610   13.0311 N.ar    1  UNL1       -0.2511
      7 C          64.5208   87.5224   14.9705 C.3     1  UNL1        0.0489
      8 C          64.8997   86.2107   15.5916 C.3     1  UNL1        0.0282
      9 C          64.5638   84.9258   14.8943 C.3     1  UNL1        0.0974
     10 N          63.8488   84.9527   13.5759 N.pl3   1  UNL1       -0.2713
     11 C          63.5129   83.6678   12.8786 C.ar    1  UNL1        0.1386
     12 C          64.0604   83.3920   11.5096 C.ar    1  UNL1        0.0553
     13 C          63.7244   82.1071   10.8123 C.ar    1  UNL1        0.1034
     14 N          62.8409   81.0981   11.4840 N.ar    1  UNL1       -0.2217
     15 C          62.2934   81.3739   12.8530 C.ar    1  UNL1        0.2363
     16 N          62.6293   82.6587   13.5503 N.ar    1  UNL1       -0.2080
     17 C          61.4099   80.3648   13.5247 C.3     1  UNL1        0.4523
     18 F          60.5263   79.3558   14.1964 F       1  UNL1       -0.1632
     19 F          60.6413   81.4739   14.1797 F       1  UNL1       -0.1632
     20 F          62.1785   79.2558   12.8696 F       1  UNL1       -0.1632
     21 C          60.8988   90.6393   11.0839 C.3     1  UNL1        0.0278
     22 C          62.3329   90.1996   11.0916 C.3     1  UNL1        0.1121
     23 N          63.3880   91.0717   10.4783 N.am    1  UNL1       -0.2973
     24 C          64.2885   91.8895   11.3560 C.2     1  UNL1        0.2461
     25 O          64.1338   91.8352   12.8470 O.2     1  UNL1       -0.2701
     26 H          63.4895   91.1073    9.4997 H       1  UNL1        0.1500
     27 C          65.3436   92.7616   10.7426 C.ar    1  UNL1        0.0535
     28 C          65.1143   94.2384   10.6137 C.ar    1  UNL1        0.0068
     29 C          66.1695   95.1104   10.0004 C.ar    1  UNL1        0.0298
     30 C          67.4539   94.5057    9.5160 C.ar    1  UNL1        0.1401
     31 F          68.5091   95.3778    8.9026 F       1  UNL1       -0.2042
     32 C          67.6831   93.0290    9.6449 C.ar    1  UNL1        0.0298
     33 C          66.6280   92.1569   10.2582 C.ar    1  UNL1        0.0068
@<TRIPOS>BOND
     1    22    21    1
     2    22    23    1
     3    23    24   am
     4    24    25    2
     5    24    27    1
     6    27    28   ar
     7    28    29   ar
     8    29    30   ar
     9    30    31    1
    10    30    32   ar
    11    32    33   ar
    12    22     1    1
    13     1     2   ar
    14     2     3   ar
    15     3     4   ar
    16     4     5   ar
    17     5     6   ar
    18     5     7    1
    19     7     8    1
    20     8     9    1
    21     9    10    1
    22    10    11    1
    23    11    12   ar
    24    12    13   ar
    25    13    14   ar
    26    14    15   ar
    27    15    17    1
    28    17    18    1
    29    17    19    1
    30    17    20    1
    31    15    16   ar
    32    33    27   ar
    33     6     1   ar
    34    16    11   ar
    35    10     4    1
    36    23    26    1
@<TRIPOS>MOLECULE
*****
 33 36 0 0 0
SMALL
GASTEIGER

@<TRIPOS>ATOM
      1 C          62.4133   87.6033   11.4750 C.ar    1  UNL1        0.0764
      2 C          61.8416   86.2633   11.1182 C.ar    1  UNL1        0.0176
      3 C          62.1978   85.0550   11.9326 C.ar    1  UNL1        0.0173
      4 C          63.1257   85.1869   13.1037 C.ar    1  UNL1        0.0664
      5 C          63.6974   86.5269   13.4605 C.ar    1  UNL1        0.0723
      6 N          63.3412   87.7352   12.6462 N.ar    1  UNL1       -0.2511
      7 C          64.6253   86.6587   14.6317 C.3     1  UNL1        0.0489
      8 C          64.9815   85.4505   15.4460 C.3     1  UNL1        0.0282
      9 C          64.4098   84.1103   15.0892 C.3     1  UNL1        0.0974
     10 N          63.4819   83.9785   13.9181 N.pl3   1  UNL1       -0.2713
     11 C          62.9102   82.6385   13.5613 C.ar    1  UNL1        0.1386
     12 C          61.9990   81.9322   14.5209 C.ar    1  UNL1        0.0553
     13 C          61.4273   80.5921   14.1640 C.ar    1  UNL1        0.1034
     14 N          61.7668   79.9583   12.8476 N.ar    1  UNL1       -0.2217
     15 C          62.6780   80.6645   11.8880 C.ar    1  UNL1        0.2363
     16 N          63.2497   82.0046   12.2448 N.ar    1  UNL1       -0.2080
     17 C          63.0176   80.0307   10.5716 C.3     1  UNL1        0.4523
     18 F          63.3571   79.3970    9.2551 F       1  UNL1       -0.1632
     19 F          63.4000   81.3737   10.0237 F       1  UNL1       -0.1632
     20 F          62.6352   78.6878   11.1195 F       1  UNL1       -0.1632
     21 C          60.7225   88.8910    9.9807 C.3     1  UNL1        0.0278
     22 C          62.0571   88.8117   10.6606 C.3     1  UNL1        0.1121
     23 N          63.0356   89.9406   10.5263 N.am    1  UNL1       -0.2973
     24 C          63.3838   90.7776   11.7214 C.2     1  UNL1        0.2461
     25 O          62.7534   90.4856   13.0509 O.2     1  UNL1       -0.2701
     26 H          63.4493   90.1322    9.6537 H       1  UNL1        0.1500
     27 C          64.3623   91.9065   11.5870 C.ar    1  UNL1        0.0535
     28 C          65.1708   92.3433   12.7726 C.ar    1  UNL1        0.0068
     29 C          66.1493   93.4723   12.6383 C.ar    1  UNL1        0.0298
     30 C          66.3193   94.1644   11.3184 C.ar    1  UNL1        0.1401
     31 F          67.2978   95.2933   11.1840 F       1  UNL1       -0.2042
     32 C          65.5108   93.7276   10.1329 C.ar    1  UNL1        0.0298
     33 C          64.5323   92.5986   10.2672 C.ar    1  UNL1        0.0068
@<TRIPOS>BOND
     1    22    21    1
     2    22    23    1
     3    23    24   am
     4    24    25    2
     5    24    27    1
     6    27    28   ar
     7    28    29   ar
     8    29    30   ar
     9    30    31    1
    10    30    32   ar
    11    32    33   ar
    12    22     1    1
    13     1     2   ar
    14     2     3   ar
    15     3     4   ar
    16     4     5   ar
    17     5     6   ar
    18     5     7    1
    19     7     8    1
    20     8     9    1
    21     9    10    1
    22    10    11    1
    23    11    12   ar
    24    12    13   ar
    25    13    14   ar
    26    14    15   ar
    27    15    17    1
    28    17    18    1
    29    17    19    1
    30    17    20    1
    31    15    16   ar
    32    33    27   ar
    33     6     1   ar
    34    16    11   ar
    35    10     4    1
    36    23    26    1
