@<TRIPOS>MOLECULE
*****
 32 34 0 0 0
SMALL
GASTEIGER

@<TRIPOS>ATOM
      1 C          62.5874   89.4300   11.7311 C.ar    1  UNL1        0.1789
      2 C          62.7014   90.1468   10.4183 C.ar    1  UNL1        0.0406
      3 C          63.5289   91.3936   10.3140 C.ar    1  UNL1        0.0034
      4 C          64.2424   91.9235   11.5223 C.ar    1  UNL1        0.0039
      5 C          64.1284   91.2067   12.8351 C.ar    1  UNL1        0.0401
      6 C          63.3009   89.9600   12.9394 C.ar    1  UNL1        0.1730
      7 C          65.0699   93.1703   11.4180 C.2     1  UNL1        0.0113
      8 C          66.3269   93.1698   10.5994 C.2     1  UNL1        0.0873
      9 S          66.8798   92.0046    9.8334 S.3     1  UNL1       -0.0254
     10 C          68.1462   92.4492    9.1637 C.2     1  UNL1        0.2832
     11 O          69.0280   91.6025    8.2945 O.2     1  UNL1       -0.2622
     12 N          68.3761   93.8891    9.5158 N.am    1  UNL1       -0.2425
     13 C          67.2516   94.3344   10.4031 C.2     1  UNL1        0.2583
     14 O          67.0818   95.7040   10.9909 O.2     1  UNL1       -0.2692
     15 H          69.1321   94.4443    9.2170 H       1  UNL1        0.1587
     16 O          63.1869   89.2432   14.2521 O.3     1  UNL1       -0.4684
     17 C          63.5729   89.9400   15.5231 C.3     1  UNL1        0.2526
     18 O          61.7600   88.1833   11.8354 O.3     1  UNL1       -0.4505
     19 C          63.7266   84.1464   11.5423 C.ar    1  UNL1        0.0758
     20 C          63.8121   84.9315   12.8176 C.ar    1  UNL1        0.0096
     21 C          63.1565   86.2771   12.9153 C.ar    1  UNL1        0.0377
     22 C          62.4155   86.8376   11.7377 C.ar    1  UNL1        0.1493
     23 C          62.3300   86.0525   10.4625 C.ar    1  UNL1        0.1061
     24 C          62.9855   84.7069   10.3648 C.ar    1  UNL1        0.0134
     25 C          61.5889   86.6130    9.2849 C.3     1  UNL1        0.4214
     26 F          60.8478   87.1735    8.1074 F       1  UNL1       -0.1657
     27 F          62.8833   86.7643    8.5422 F       1  UNL1       -0.1657
     28 F          60.2945   86.4618   10.0275 F       1  UNL1       -0.1657
     29 C          64.3821   82.8007   11.4446 C.2     1  UNL1        0.3413
     30 O          64.8125   82.2714   10.1088 O.2     1  UNL1       -0.2449
     31 C          63.4922   81.1552   13.2474 C.3     1  UNL1        0.2560
     32 O          64.6072   81.9845   12.6827 O.3     1  UNL1       -0.4413
@<TRIPOS>BOND
     1    31    32    1
     2    32    29    1
     3    29    30    2
     4    29    19    1
     5    19    20   ar
     6    20    21   ar
     7    21    22   ar
     8    22    18    1
     9    18     1    1
    10     1     2   ar
    11     2     3   ar
    12     3     4   ar
    13     4     7    1
    14     7     8    2
    15     8     9    1
    16     9    10    1
    17    10    11    2
    18    10    12   am
    19    12    13   am
    20    13    14    2
    21     4     5   ar
    22     5     6   ar
    23     6    16    1
    24    16    17    1
    25    22    23   ar
    26    23    25    1
    27    25    26    1
    28    25    27    1
    29    25    28    1
    30    23    24   ar
    31    24    19   ar
    32     6     1   ar
    33    13     8    1
    34    12    15    1
@<TRIPOS>MOLECULE
*****
 32 34 0 0 0
SMALL
GASTEIGER

@<TRIPOS>ATOM
      1 C          63.2321   87.6210   12.6313 C.ar    1  UNL1        0.1789
      2 C          63.9903   87.2682   13.8765 C.ar    1  UNL1        0.0406
      3 C          64.6584   88.3456   14.6784 C.ar    1  UNL1        0.0034
      4 C          64.5683   89.7757   14.2349 C.ar    1  UNL1        0.0039
      5 C          63.8101   90.1285   12.9897 C.ar    1  UNL1        0.0401
      6 C          63.1420   89.0511   12.1878 C.ar    1  UNL1        0.1730
      7 C          65.2364   90.8531   15.0368 C.2     1  UNL1        0.0113
      8 C          65.8288   92.0449   14.3449 C.2     1  UNL1        0.0873
      9 S          65.8296   92.2956   12.8659 S.3     1  UNL1       -0.0254
     10 C          66.5257   93.6009   12.6175 C.2     1  UNL1        0.2832
     11 O          66.7525   94.2382   11.2787 O.2     1  UNL1       -0.2622
     12 N          66.9551   94.1569   13.9428 N.am    1  UNL1       -0.2425
     13 C          66.5244   93.1952   15.0103 C.2     1  UNL1        0.2583
     14 O          66.7498   93.3557   16.4846 O.2     1  UNL1       -0.2692
     15 H          67.4353   95.0042   14.0867 H       1  UNL1        0.1587
     16 O          62.3839   89.4039   10.9425 O.3     1  UNL1       -0.4684
     17 C          62.6774   90.6875   10.2241 C.3     1  UNL1        0.2526
     18 O          62.5640   86.5437   11.8294 O.3     1  UNL1       -0.4505
     19 C          62.6680   82.2794   13.2630 C.ar    1  UNL1        0.0758
     20 C          62.3820   83.3892   14.2307 C.ar    1  UNL1        0.0096
     21 C          62.3473   84.8106   13.7528 C.ar    1  UNL1        0.0377
     22 C          62.5987   85.1222   12.3073 C.ar    1  UNL1        0.1493
     23 C          62.8847   84.0124   11.3396 C.ar    1  UNL1        0.1061
     24 C          62.9193   82.5910   11.8174 C.ar    1  UNL1        0.0134
     25 C          63.1360   84.3240    9.8939 C.3     1  UNL1        0.4214
     26 F          63.3873   84.6356    8.4484 F       1  UNL1       -0.1657
     27 F          64.4258   83.5606    9.9536 F       1  UNL1       -0.1657
     28 F          61.8462   85.0874    9.8343 F       1  UNL1       -0.1657
     29 C          62.7026   80.8579   13.7409 C.2     1  UNL1        0.3413
     30 O          63.9489   80.3080   14.3688 O.2     1  UNL1       -0.2449
     31 C          60.1754   80.4264   14.1615 C.3     1  UNL1        0.2560
     32 O          61.4910   79.9865   13.5908 O.3     1  UNL1       -0.4413
@<TRIPOS>BOND
     1    31    32    1
     2    32    29    1
     3    29    30    2
     4    29    19    1
     5    19    20   ar
     6    20    21   ar
     7    21    22   ar
     8    22    18    1
     9    18     1    1
    10     1     2   ar
    11     2     3   ar
    12     3     4   ar
    13     4     7    1
    14     7     8    2
    15     8     9    1
    16     9    10    1
    17    10    11    2
    18    10    12   am
    19    12    13   am
    20    13    14    2
    21     4     5   ar
    22     5     6   ar
    23     6    16    1
    24    16    17    1
    25    22    23   ar
    26    23    25    1
    27    25    26    1
    28    25    27    1
    29    25    28    1
    30    23    24   ar
    31    24    19   ar
    32     6     1   ar
    33    13     8    1
    34    12    15    1
@<TRIPOS>MOLECULE
*****
 32 34 0 0 0
SMALL
GASTEIGER

@<TRIPOS>ATOM
      1 C          62.3044   88.9474   11.4471 C.ar    1  UNL1        0.1789
      2 C          62.3139   89.7296   10.1673 C.ar    1  UNL1        0.0406
      3 C          63.1557   90.9657   10.0500 C.ar    1  UNL1        0.0034
      4 C          63.9878   91.4195   11.2126 C.ar    1  UNL1        0.0039
      5 C          63.9783   90.6372   12.4924 C.ar    1  UNL1        0.0401
      6 C          63.1366   89.4013   12.6097 C.ar    1  UNL1        0.1730
      7 C          64.8296   92.6555   11.0953 C.2     1  UNL1        0.0113
      8 C          65.6218   93.1380   12.2741 C.2     1  UNL1        0.0873
      9 S          65.6711   92.4923   13.6272 S.3     1  UNL1       -0.0254
     10 C          66.5835   93.3062   14.4962 C.2     1  UNL1        0.2832
     11 O          66.9219   93.0214   15.9295 O.2     1  UNL1       -0.2622
     12 N          67.0981   94.4549   13.6802 N.am    1  UNL1       -0.2425
     13 C          66.5037   94.3509   12.3069 C.2     1  UNL1        0.2583
     14 O          66.7484   95.2942   11.1666 O.2     1  UNL1       -0.2692
     15 H          67.7173   95.1542   13.9914 H       1  UNL1        0.1587
     16 O          63.1270   88.6190   13.8896 O.3     1  UNL1       -0.4684
     17 C          64.4004   88.4213   14.6573 C.3     1  UNL1        0.2526
     18 O          61.4626   87.7114   11.5644 O.3     1  UNL1       -0.4505
     19 C          63.3898   83.6497   11.3675 C.ar    1  UNL1        0.0758
     20 C          63.2913   84.3703   12.6793 C.ar    1  UNL1        0.0096
     21 C          62.6489   85.7242   12.7450 C.ar    1  UNL1        0.0377
     22 C          62.1050   86.3575   11.4988 C.ar    1  UNL1        0.1493
     23 C          62.2035   85.6369   10.1869 C.ar    1  UNL1        0.1061
     24 C          62.8459   84.2830   10.1213 C.ar    1  UNL1        0.0134
     25 C          61.6596   86.2702    8.9406 C.3     1  UNL1        0.4214
     26 F          61.1158   86.9035    7.6944 F       1  UNL1       -0.1657
     27 F          60.2626   85.9759    9.4007 F       1  UNL1       -0.1657
     28 F          63.0567   86.5645    8.4806 F       1  UNL1       -0.1657
     29 C          64.0322   82.2959   11.3019 C.2     1  UNL1        0.3413
     30 O          64.6955   81.8410   10.0357 O.2     1  UNL1       -0.2449
     31 C          62.7675   80.6313   12.8445 C.3     1  UNL1        0.2560
     32 O          64.0113   81.3968   12.5023 O.3     1  UNL1       -0.4413
@<TRIPOS>BOND
     1    31    32    1
     2    32    29    1
     3    29    30    2
     4    29    19    1
     5    19    20   ar
     6    20    21   ar
     7    21    22   ar
     8    22    18    1
     9    18     1    1
    10     1     2   ar
    11     2     3   ar
    12     3     4   ar
    13     4     7    1
    14     7     8    2
    15     8     9    1
    16     9    10    1
    17    10    11    2
    18    10    12   am
    19    12    13   am
    20    13    14    2
    21     4     5   ar
    22     5     6   ar
    23     6    16    1
    24    16    17    1
    25    22    23   ar
    26    23    25    1
    27    25    26    1
    28    25    27    1
    29    25    28    1
    30    23    24   ar
    31    24    19   ar
    32     6     1   ar
    33    13     8    1
    34    12    15    1
@<TRIPOS>MOLECULE
*****
 32 34 0 0 0
SMALL
GASTEIGER

@<TRIPOS>ATOM
      1 C          62.2482   88.8354   11.4313 C.ar    1  UNL1        0.1789
      2 C          63.1304   89.1779   12.5951 C.ar    1  UNL1        0.0406
      3 C          63.9802   90.4133   12.5540 C.ar    1  UNL1        0.0034
      4 C          63.9477   91.3063   11.3492 C.ar    1  UNL1        0.0039
      5 C          63.0654   90.9638   10.1854 C.ar    1  UNL1        0.0401
      6 C          62.2157   89.7284   10.2265 C.ar    1  UNL1        0.1730
      7 C          64.7975   92.5417   11.3081 C.2     1  UNL1        0.0113
      8 C          65.5905   92.9470   12.5151 C.2     1  UNL1        0.0873
      9 S          65.6333   92.2203   13.8267 S.3     1  UNL1       -0.0254
     10 C          66.5493   92.9743   14.7446 C.2     1  UNL1        0.2832
     11 O          66.8833   92.6012   16.1585 O.2     1  UNL1       -0.2622
     12 N          67.0726   94.1669   14.0003 N.am    1  UNL1       -0.2425
     13 C          66.4801   94.1499   12.6224 C.2     1  UNL1        0.2583
     14 O          66.7328   95.1589   11.5416 O.2     1  UNL1       -0.2692
     15 H          67.6956   94.8421   14.3541 H       1  UNL1        0.1587
     16 O          61.3334   89.3859    9.0627 O.3     1  UNL1       -0.4684
     17 C          59.8420   89.4045    9.2212 C.3     1  UNL1        0.2526
     18 O          61.3984   87.6001   11.4724 O.3     1  UNL1       -0.4505
     19 C          63.3339   83.5377   11.4999 C.ar    1  UNL1        0.0758
     20 C          63.1732   84.3006   12.7813 C.ar    1  UNL1        0.0096
     21 C          62.5281   85.6547   12.7721 C.ar    1  UNL1        0.0377
     22 C          62.0436   86.2459   11.4815 C.ar    1  UNL1        0.1493
     23 C          62.2043   85.4830   10.2001 C.ar    1  UNL1        0.1061
     24 C          62.8495   84.1289   10.2093 C.ar    1  UNL1        0.0134
     25 C          61.7198   86.0743    8.9094 C.3     1  UNL1        0.4214
     26 F          61.2354   86.6654    7.6188 F       1  UNL1       -0.1657
     27 F          60.3013   85.9249    9.3734 F       1  UNL1       -0.1657
     28 F          63.1384   86.2236    8.4454 F       1  UNL1       -0.1657
     29 C          63.9791   82.1835   11.5090 C.2     1  UNL1        0.3413
     30 O          64.6530   81.6655   10.2732 O.2     1  UNL1       -0.2449
     31 C          62.7058   80.5968   13.1249 C.3     1  UNL1        0.2560
     32 O          63.9504   81.3475   12.7541 O.3     1  UNL1       -0.4413
@<TRIPOS>BOND
     1    31    32    1
     2    32    29    1
     3    29    30    2
     4    29    19    1
     5    19    20   ar
     6    20    21   ar
     7    21    22   ar
     8    22    18    1
     9    18     1    1
    10     1     2   ar
    11     2     3   ar
    12     3     4   ar
    13     4     7    1
    14     7     8    2
    15     8     9    1
    16     9    10    1
    17    10    11    2
    18    10    12   am
    19    12    13   am
    20    13    14    2
    21     4     5   ar
    22     5     6   ar
    23     6    16    1
    24    16    17    1
    25    22    23   ar
    26    23    25    1
    27    25    26    1
    28    25    27    1
    29    25    28    1
    30    23    24   ar
    31    24    19   ar
    32     6     1   ar
    33    13     8    1
    34    12    15    1
@<TRIPOS>MOLECULE
*****
 32 34 0 0 0
SMALL
GASTEIGER

@<TRIPOS>ATOM
      1 C          62.3871   87.9875   11.8711 C.ar    1  UNL1        0.1789
      2 C          63.0636   86.9955   12.7702 C.ar    1  UNL1        0.0406
      3 C          63.2597   85.5805   12.3125 C.ar    1  UNL1        0.0034
      4 C          62.7793   85.1575   10.9560 C.ar    1  UNL1        0.0039
      5 C          62.1029   86.1496   10.0569 C.ar    1  UNL1        0.0401
      6 C          61.9067   87.5645   10.5145 C.ar    1  UNL1        0.1730
      7 C          62.9754   83.7425   10.4984 C.2     1  UNL1        0.0113
      8 C          62.8425   82.6128   11.4762 C.2     1  UNL1        0.0873
      9 S          62.5191   82.7430   12.9352 S.3     1  UNL1       -0.0254
     10 C          62.4864   81.3652   13.5274 C.2     1  UNL1        0.2832
     11 O          62.2006   81.0283   14.9608 O.2     1  UNL1       -0.2622
     12 N          62.7895   80.3836   12.4345 N.am    1  UNL1       -0.2425
     13 C          63.0096   81.1546   11.1668 C.2     1  UNL1        0.2583
     14 O          63.3390   80.5701    9.8252 O.2     1  UNL1       -0.2692
     15 H          62.8359   79.4050   12.5320 H       1  UNL1        0.1587
     16 O          61.2303   88.5566    9.6155 O.3     1  UNL1       -0.4684
     17 C          59.9984   88.1623    8.8560 C.3     1  UNL1        0.2526
     18 O          62.1910   89.4025   12.3287 O.3     1  UNL1       -0.4505
     19 C          65.4672   92.4312   11.7430 C.ar    1  UNL1        0.0758
     20 C          64.5447   92.0955   10.6089 C.ar    1  UNL1        0.0096
     21 C          63.4527   91.0859   10.8041 C.ar    1  UNL1        0.0377
     22 C          63.2831   90.4120   12.1334 C.ar    1  UNL1        0.1493
     23 C          64.2056   90.7478   13.2675 C.ar    1  UNL1        0.1061
     24 C          65.2977   91.7574   13.0723 C.ar    1  UNL1        0.0134
     25 C          64.0360   90.0740   14.5969 C.3     1  UNL1        0.4214
     26 F          63.8665   89.4002   15.9263 F       1  UNL1       -0.1657
     27 F          64.8054   88.8885   14.0943 F       1  UNL1       -0.1657
     28 F          63.2666   91.2594   15.0996 F       1  UNL1       -0.1657
     29 C          66.5593   93.4408   11.5477 C.2     1  UNL1        0.3413
     30 O          66.5326   94.7316   12.3112 O.2     1  UNL1       -0.2449
     31 C          67.7605   93.9083    9.2920 C.3     1  UNL1        0.2560
     32 O          67.6781   93.1595   10.5891 O.3     1  UNL1       -0.4413
@<TRIPOS>BOND
     1    31    32    1
     2    32    29    1
     3    29    30    2
     4    29    19    1
     5    19    20   ar
     6    20    21   ar
     7    21    22   ar
     8    22    18    1
     9    18     1    1
    10     1     2   ar
    11     2     3   ar
    12     3     4   ar
    13     4     7    1
    14     7     8    2
    15     8     9    1
    16     9    10    1
    17    10    11    2
    18    10    12   am
    19    12    13   am
    20    13    14    2
    21     4     5   ar
    22     5     6   ar
    23     6    16    1
    24    16    17    1
    25    22    23   ar
    26    23    25    1
    27    25    26    1
    28    25    27    1
    29    25    28    1
    30    23    24   ar
    31    24    19   ar
    32     6     1   ar
    33    13     8    1
    34    12    15    1
@<TRIPOS>MOLECULE
*****
 32 34 0 0 0
SMALL
GASTEIGER

@<TRIPOS>ATOM
      1 C          63.9910   90.3170   14.3679 C.ar    1  UNL1        0.1789
      2 C          64.2340   89.2237   13.3701 C.ar    1  UNL1        0.0406
      3 C          64.0876   87.7882   13.7799 C.ar    1  UNL1        0.0034
      4 C          63.6982   87.4460   15.1874 C.ar    1  UNL1        0.0039
      5 C          63.4552   88.5393   16.1852 C.ar    1  UNL1        0.0401
      6 C          63.6016   89.9748   15.7755 C.ar    1  UNL1        0.1730
      7 C          63.5517   86.0105   15.5972 C.2     1  UNL1        0.0113
      8 C          63.3902   84.9453   14.5535 C.2     1  UNL1        0.0873
      9 S          63.3566   85.1628   13.0696 S.3     1  UNL1       -0.0254
     10 C          63.1795   83.8275   12.4094 C.2     1  UNL1        0.2832
     11 O          63.0934   83.5787   10.9327 O.2     1  UNL1       -0.2622
     12 N          63.1037   82.7849   13.4852 N.am    1  UNL1       -0.2425
     13 C          63.2339   83.4758   14.8102 C.2     1  UNL1        0.2583
     14 O          63.2117   82.8133   16.1558 O.2     1  UNL1       -0.2692
     15 H          62.9887   81.8171   13.3460 H       1  UNL1        0.1587
     16 O          63.3586   91.0681   16.7733 O.3     1  UNL1       -0.4684
     17 C          64.3399   92.1948   16.9052 C.3     1  UNL1        0.2526
     18 O          64.1375   91.7525   13.9581 O.3     1  UNL1       -0.4505
     19 C          66.9652   92.8682   10.6402 C.ar    1  UNL1        0.0758
     20 C          65.5488   92.4898   10.3230 C.ar    1  UNL1        0.0096
     21 C          64.6062   92.1179   11.4290 C.ar    1  UNL1        0.0377
     22 C          65.0800   92.1244   12.8522 C.ar    1  UNL1        0.1493
     23 C          66.4964   92.5027   13.1693 C.ar    1  UNL1        0.1061
     24 C          67.4390   92.8746   12.0633 C.ar    1  UNL1        0.0134
     25 C          66.9703   92.5092   14.5925 C.3     1  UNL1        0.4214
     26 F          67.4442   92.5157   16.0157 F       1  UNL1       -0.1657
     27 F          67.2034   91.0291   14.5217 F       1  UNL1       -0.1657
     28 F          66.7373   93.9893   14.6634 F       1  UNL1       -0.1657
     29 C          67.9078   93.2400    9.5342 C.2     1  UNL1        0.3413
     30 O          68.4058   92.1883    8.5877 O.2     1  UNL1       -0.2449
     31 C          67.3347   95.7537    9.2129 C.3     1  UNL1        0.2560
     32 O          68.3524   94.6637    9.3746 O.3     1  UNL1       -0.4413
@<TRIPOS>BOND
     1    31    32    1
     2    32    29    1
     3    29    30    2
     4    29    19    1
     5    19    20   ar
     6    20    21   ar
     7    21    22   ar
     8    22    18    1
     9    18     1    1
    10     1     2   ar
    11     2     3   ar
    12     3     4   ar
    13     4     7    1
    14     7     8    2
    15     8     9    1
    16     9    10    1
    17    10    11    2
    18    10    12   am
    19    12    13   am
    20    13    14    2
    21     4     5   ar
    22     5     6   ar
    23     6    16    1
    24    16    17    1
    25    22    23   ar
    26    23    25    1
    27    25    26    1
    28    25    27    1
    29    25    28    1
    30    23    24   ar
    31    24    19   ar
    32     6     1   ar
    33    13     8    1
    34    12    15    1
@<TRIPOS>MOLECULE
*****
 32 34 0 0 0
SMALL
GASTEIGER

@<TRIPOS>ATOM
      1 C          62.4584   87.9806   11.9284 C.ar    1  UNL1        0.1789
      2 C          61.8972   87.5608   10.6022 C.ar    1  UNL1        0.0406
      3 C          62.0877   86.1537   10.1187 C.ar    1  UNL1        0.0034
      4 C          62.8395   85.1664   10.9613 C.ar    1  UNL1        0.0039
      5 C          63.4007   85.5861   12.2875 C.ar    1  UNL1        0.0401
      6 C          63.2102   86.9932   12.7711 C.ar    1  UNL1        0.1730
      7 C          63.0300   83.7592   10.4778 C.2     1  UNL1        0.0113
      8 C          62.8692   82.6110   11.4294 C.2     1  UNL1        0.0873
      9 S          62.5216   82.7142   12.8850 S.3     1  UNL1       -0.0254
     10 C          62.4653   81.3248   13.4477 C.2     1  UNL1        0.2832
     11 O          62.1513   80.9612   14.8687 O.2     1  UNL1       -0.2622
     12 N          62.7781   80.3630   12.3400 N.am    1  UNL1       -0.2425
     13 C          63.0277   81.1579   11.0927 C.2     1  UNL1        0.2583
     14 O          63.3750   80.5979    9.7451 O.2     1  UNL1       -0.2692
     15 H          62.8134   79.3822   12.4180 H       1  UNL1        0.1587
     16 O          63.7714   87.4130   14.0973 O.3     1  UNL1       -0.4684
     17 C          64.4611   86.4082   14.9718 C.3     1  UNL1        0.2526
     18 O          62.2679   89.3876   12.4119 O.3     1  UNL1       -0.4505
     19 C          65.3752   92.5159   11.5128 C.ar    1  UNL1        0.0758
     20 C          64.4540   92.0406   10.4287 C.ar    1  UNL1        0.0096
     21 C          63.4182   90.9978   10.7285 C.ar    1  UNL1        0.0377
     22 C          63.3037   90.4304   12.1122 C.ar    1  UNL1        0.1493
     23 C          64.2250   90.9058   13.1963 C.ar    1  UNL1        0.1061
     24 C          65.2607   91.9485   12.8966 C.ar    1  UNL1        0.0134
     25 C          64.1105   90.3384   14.5802 C.3     1  UNL1        0.4214
     26 F          63.9961   89.7710   15.9640 F       1  UNL1       -0.1657
     27 F          62.6176   90.4657   14.5090 F       1  UNL1       -0.1657
     28 F          65.6034   90.2110   14.6514 F       1  UNL1       -0.1657
     29 C          66.4110   93.5587   11.2131 C.2     1  UNL1        0.3413
     30 O          66.2564   94.9477   11.7578 O.2     1  UNL1       -0.2449
     31 C          67.8308   93.9240    9.0682 C.3     1  UNL1        0.2560
     32 O          67.6014   93.2125   10.3686 O.3     1  UNL1       -0.4413
@<TRIPOS>BOND
     1    31    32    1
     2    32    29    1
     3    29    30    2
     4    29    19    1
     5    19    20   ar
     6    20    21   ar
     7    21    22   ar
     8    22    18    1
     9    18     1    1
    10     1     2   ar
    11     2     3   ar
    12     3     4   ar
    13     4     7    1
    14     7     8    2
    15     8     9    1
    16     9    10    1
    17    10    11    2
    18    10    12   am
    19    12    13   am
    20    13    14    2
    21     4     5   ar
    22     5     6   ar
    23     6    16    1
    24    16    17    1
    25    22    23   ar
    26    23    25    1
    27    25    26    1
    28    25    27    1
    29    25    28    1
    30    23    24   ar
    31    24    19   ar
    32     6     1   ar
    33    13     8    1
    34    12    15    1
@<TRIPOS>MOLECULE
*****
 32 34 0 0 0
SMALL
GASTEIGER

@<TRIPOS>ATOM
      1 C          62.2158   88.6653   11.7791 C.ar    1  UNL1        0.1789
      2 C          63.3619   88.4460   12.7216 C.ar    1  UNL1        0.0406
      3 C          64.1806   89.6121   13.1910 C.ar    1  UNL1        0.0034
      4 C          63.8531   90.9973   12.7178 C.ar    1  UNL1        0.0039
      5 C          62.7071   91.2165   11.7753 C.ar    1  UNL1        0.0401
      6 C          61.8884   90.0506   11.3059 C.ar    1  UNL1        0.1730
      7 C          64.6718   92.1633   13.1872 C.2     1  UNL1        0.0113
      8 C          65.5173   92.9272   12.2117 C.2     1  UNL1        0.0873
      9 S          65.6444   92.6437   10.7442 S.3     1  UNL1       -0.0254
     10 C          66.5898   93.6500   10.1580 C.2     1  UNL1        0.2832
     11 O          67.0051   93.7359    8.7192 O.2     1  UNL1       -0.2622
     12 N          67.0470   94.5554   11.2631 N.am    1  UNL1       -0.2425
     13 C          66.3841   94.1086   12.5324 C.2     1  UNL1        0.2583
     14 O          66.5577   94.7336   13.8849 O.2     1  UNL1       -0.2692
     15 H          67.6723   95.3102   11.1715 H       1  UNL1        0.1587
     16 O          60.7423   90.2699   10.3633 O.3     1  UNL1       -0.4684
     17 C          60.6058   89.4166    9.1373 C.3     1  UNL1        0.2526
     18 O          61.3972   87.4994   11.3097 O.3     1  UNL1       -0.4505
     19 C          63.1245   83.3457   11.4244 C.ar    1  UNL1        0.0758
     20 C          62.9710   84.1295   12.6941 C.ar    1  UNL1        0.0096
     21 C          62.3953   85.5140   12.6558 C.ar    1  UNL1        0.0377
     22 C          61.9729   86.1148   11.3479 C.ar    1  UNL1        0.1493
     23 C          62.1264   85.3310   10.0783 C.ar    1  UNL1        0.1061
     24 C          62.7021   83.9464   10.1165 C.ar    1  UNL1        0.0134
     25 C          61.7040   85.9318    8.7703 C.3     1  UNL1        0.4214
     26 F          61.2817   86.5325    7.4623 F       1  UNL1       -0.1657
     27 F          63.1357   85.9668    8.3240 F       1  UNL1       -0.1657
     28 F          60.2724   85.8968    9.2165 F       1  UNL1       -0.1657
     29 C          63.7002   81.9611   11.4627 C.2     1  UNL1        0.3413
     30 O          64.4404   81.4235   10.2739 O.2     1  UNL1       -0.2449
     31 C          62.1631   80.8066   13.2103 C.3     1  UNL1        0.2560
     32 O          63.5358   81.1141   12.6897 O.3     1  UNL1       -0.4413
@<TRIPOS>BOND
     1    31    32    1
     2    32    29    1
     3    29    30    2
     4    29    19    1
     5    19    20   ar
     6    20    21   ar
     7    21    22   ar
     8    22    18    1
     9    18     1    1
    10     1     2   ar
    11     2     3   ar
    12     3     4   ar
    13     4     7    1
    14     7     8    2
    15     8     9    1
    16     9    10    1
    17    10    11    2
    18    10    12   am
    19    12    13   am
    20    13    14    2
    21     4     5   ar
    22     5     6   ar
    23     6    16    1
    24    16    17    1
    25    22    23   ar
    26    23    25    1
    27    25    26    1
    28    25    27    1
    29    25    28    1
    30    23    24   ar
    31    24    19   ar
    32     6     1   ar
    33    13     8    1
    34    12    15    1
@<TRIPOS>MOLECULE
*****
 32 34 0 0 0
SMALL
GASTEIGER

@<TRIPOS>ATOM
      1 C          62.4487   87.6211   12.2773 C.ar    1  UNL1        0.1789
      2 C          61.7183   87.2028   11.0357 C.ar    1  UNL1        0.0406
      3 C          61.8923   85.8144   10.4950 C.ar    1  UNL1        0.0034
      4 C          62.7967   84.8445   11.1959 C.ar    1  UNL1        0.0039
      5 C          63.5271   85.2628   12.4374 C.ar    1  UNL1        0.0401
      6 C          63.3531   86.6510   12.9782 C.ar    1  UNL1        0.1730
      7 C          62.9707   83.4561   10.6552 C.2     1  UNL1        0.0113
      8 C          62.7964   82.2719   11.5592 C.2     1  UNL1        0.0873
      9 S          62.4500   82.3196   13.0179 S.3     1  UNL1       -0.0254
     10 C          62.3774   80.9092   13.5234 C.2     1  UNL1        0.2832
     11 O          62.0591   80.4916   14.9285 O.2     1  UNL1       -0.2622
     12 N          62.6789   79.9898   12.3772 N.am    1  UNL1       -0.2425
     13 C          62.9379   80.8320   11.1633 C.2     1  UNL1        0.2583
     14 O          63.2785   80.3236    9.7938 O.2     1  UNL1       -0.2692
     15 H          62.7027   79.0063   12.4150 H       1  UNL1        0.1587
     16 O          64.0835   87.0693   14.2197 O.3     1  UNL1       -0.4684
     17 C          64.2926   86.0870   15.3338 C.3     1  UNL1        0.2526
     18 O          62.2748   89.0093   12.8180 O.3     1  UNL1       -0.4505
     19 C          65.2210   92.2327   11.7318 C.ar    1  UNL1        0.0758
     20 C          65.2890   91.5776   13.0795 C.ar    1  UNL1        0.0096
     21 C          64.3069   90.5032   13.4415 C.ar    1  UNL1        0.0377
     22 C          63.2569   90.0838   12.4559 C.ar    1  UNL1        0.1493
     23 C          63.1889   90.7388   11.1083 C.ar    1  UNL1        0.1061
     24 C          64.1710   91.8133   10.7462 C.ar    1  UNL1        0.0134
     25 C          62.1388   90.3195   10.1226 C.3     1  UNL1        0.4214
     26 F          61.0888   89.9001    9.1369 F       1  UNL1       -0.1657
     27 F          61.1354   91.1877   10.8221 F       1  UNL1       -0.1657
     28 F          63.1422   89.4513    9.4231 F       1  UNL1       -0.1657
     29 C          66.2031   93.3071   11.3697 C.2     1  UNL1        0.3413
     30 O          66.5014   94.4093   12.3424 O.2     1  UNL1       -0.2449
     31 C          68.0111   92.3175    9.7880 C.3     1  UNL1        0.2560
     32 O          66.8869   93.2794   10.0350 O.3     1  UNL1       -0.4413
@<TRIPOS>BOND
     1    31    32    1
     2    32    29    1
     3    29    30    2
     4    29    19    1
     5    19    20   ar
     6    20    21   ar
     7    21    22   ar
     8    22    18    1
     9    18     1    1
    10     1     2   ar
    11     2     3   ar
    12     3     4   ar
    13     4     7    1
    14     7     8    2
    15     8     9    1
    16     9    10    1
    17    10    11    2
    18    10    12   am
    19    12    13   am
    20    13    14    2
    21     4     5   ar
    22     5     6   ar
    23     6    16    1
    24    16    17    1
    25    22    23   ar
    26    23    25    1
    27    25    26    1
    28    25    27    1
    29    25    28    1
    30    23    24   ar
    31    24    19   ar
    32     6     1   ar
    33    13     8    1
    34    12    15    1
