@<TRIPOS>MOLECULE
*****
 28 31 0 0 0
SMALL
GASTEIGER

@<TRIPOS>ATOM
      1 C          64.1411   90.3108   13.6059 C.3     1  UNL1        0.1041
      2 C          65.4415   91.0572   13.5610 C.3     1  UNL1        0.0251
      3 C          65.7951   91.8760   12.3549 C.3     1  UNL1        0.0116
      4 C          64.8483   91.9484   11.1937 C.3     1  UNL1        0.0854
      5 C          63.5480   91.2020   11.2386 C.2     1  UNL1        0.2261
      6 O          62.6012   91.2744   10.0774 O.2     1  UNL1       -0.2749
      7 N          63.1944   90.3832   12.4446 N.am    1  UNL1       -0.2715
      8 C          63.7741   87.9946   14.7242 C.ar    1  UNL1        0.1392
      9 C          63.4205   87.1759   15.9302 C.ar    1  UNL1        0.0368
     10 C          63.0802   87.8544   17.2240 C.ar    1  UNL1        0.0062
     11 C          63.0936   89.3518   17.3117 C.ar    1  UNL1        0.0368
     12 C          63.4472   90.1706   16.1056 C.ar    1  UNL1        0.1392
     13 C          63.7875   89.4921   14.8119 C.ar    1  UNL1        0.0636
     14 C          63.7339   85.8815   13.2133 C.3     1  UNL1        0.2525
     15 O          64.1144   87.3160   13.4305 O.3     1  UNL1       -0.4716
     16 O          63.4606   91.6680   16.1933 O.3     1  UNL1       -0.4716
     17 C          64.6650   92.3767   16.7384 C.3     1  UNL1        0.2525
     18 C          61.8940   89.6369   12.4894 C.3     1  UNL1        0.1395
     19 C          61.4668   88.8034   11.3178 C.ar    1  UNL1        0.0790
     20 C          60.0873   88.9593   10.7497 C.ar    1  UNL1        0.0165
     21 C          59.6601   88.1258    9.5781 C.ar    1  UNL1        0.0028
     22 C          60.6125   87.1365    8.9744 C.ar    1  UNL1        0.0177
     23 C          60.1853   86.3030    7.8027 C.ar    1  UNL1        0.0015
     24 C          61.1376   85.3138    7.1991 C.ar    1  UNL1        0.0001
     25 C          62.5171   85.1579    7.7672 C.ar    1  UNL1        0.0015
     26 C          62.9443   85.9914    8.9388 C.ar    1  UNL1        0.0191
     27 C          61.9920   86.9807    9.5424 C.ar    1  UNL1        0.0809
     28 N          62.4191   87.8142   10.7142 N.ar    1  UNL1       -0.2480
@<TRIPOS>BOND
     1    14    15    1
     2    15     8    1
     3     8     9   ar
     4     9    10   ar
     5    10    11   ar
     6    11    12   ar
     7    12    16    1
     8    16    17    1
     9    12    13   ar
    10    13     1    1
    11     1     2    1
    12     2     3    1
    13     3     4    1
    14     4     5    1
    15     5     6    2
    16     5     7   am
    17     7    18    1
    18    18    19    1
    19    19    20   ar
    20    20    21   ar
    21    21    22   ar
    22    22    23   ar
    23    23    24   ar
    24    24    25   ar
    25    25    26   ar
    26    26    27   ar
    27    27    28   ar
    28    13     8   ar
    29     7     1    1
    30    28    19   ar
    31    27    22   ar
@<TRIPOS>MOLECULE
*****
 28 31 0 0 0
SMALL
GASTEIGER

@<TRIPOS>ATOM
      1 C          64.1575   90.3240   13.6240 C.3     1  UNL1        0.1041
      2 C          65.4638   91.0602   13.5817 C.3     1  UNL1        0.0251
      3 C          65.8246   91.8788   12.3776 C.3     1  UNL1        0.0116
      4 C          64.8793   91.9613   11.2160 C.3     1  UNL1        0.0854
      5 C          63.5730   91.2251   11.2584 C.2     1  UNL1        0.2261
      6 O          62.6277   91.3076   10.0967 O.2     1  UNL1       -0.2749
      7 N          63.2121   90.4065   12.4623 N.am    1  UNL1       -0.2715
      8 C          63.4519   90.1841   16.1206 C.ar    1  UNL1        0.1392
      9 C          63.0910   89.3655   17.3245 C.ar    1  UNL1        0.0368
     10 C          63.0748   87.8682   17.2361 C.ar    1  UNL1        0.0062
     11 C          63.4196   87.1895   15.9436 C.ar    1  UNL1        0.0368
     12 C          63.7805   88.0081   14.7395 C.ar    1  UNL1        0.1392
     13 C          63.7966   89.5054   14.8280 C.ar    1  UNL1        0.0636
     14 C          64.6712   92.3872   16.7603 C.3     1  UNL1        0.2525
     15 O          63.4680   91.6814   16.2090 O.3     1  UNL1       -0.4716
     16 O          64.1253   87.3294   13.4471 O.3     1  UNL1       -0.4716
     17 C          63.7393   85.8969   13.2260 C.3     1  UNL1        0.2525
     18 C          61.9059   89.6704   12.5047 C.3     1  UNL1        0.1395
     19 C          61.4701   88.8479   11.3285 C.ar    1  UNL1        0.0790
     20 C          60.0999   89.0364   10.7479 C.ar    1  UNL1        0.0165
     21 C          59.6640   88.2139    9.5717 C.ar    1  UNL1        0.0028
     22 C          60.5984   87.2028    8.9760 C.ar    1  UNL1        0.0177
     23 C          60.1626   86.3803    7.7998 C.ar    1  UNL1        0.0015
     24 C          61.0969   85.3693    7.2042 C.ar    1  UNL1        0.0001
     25 C          62.4671   85.1807    7.7848 C.ar    1  UNL1        0.0015
     26 C          62.9029   86.0032    8.9610 C.ar    1  UNL1        0.0191
     27 C          61.9686   87.0143    9.5566 C.ar    1  UNL1        0.0809
     28 N          62.4044   87.8368   10.7329 N.ar    1  UNL1       -0.2480
@<TRIPOS>BOND
     1    14    15    1
     2    15     8    1
     3     8     9   ar
     4     9    10   ar
     5    10    11   ar
     6    11    12   ar
     7    12    16    1
     8    16    17    1
     9    12    13   ar
    10    13     1    1
    11     1     2    1
    12     2     3    1
    13     3     4    1
    14     4     5    1
    15     5     6    2
    16     5     7   am
    17     7    18    1
    18    18    19    1
    19    19    20   ar
    20    20    21   ar
    21    21    22   ar
    22    22    23   ar
    23    23    24   ar
    24    24    25   ar
    25    25    26   ar
    26    26    27   ar
    27    27    28   ar
    28    13     8   ar
    29     7     1    1
    30    28    19   ar
    31    27    22   ar
@<TRIPOS>MOLECULE
*****
 28 31 0 0 0
SMALL
GASTEIGER

@<TRIPOS>ATOM
      1 C          63.0183   93.4729    1.5252 C.3     1  UNL1        0.1041
      2 C          63.6763   92.1990    1.9657 C.3     1  UNL1        0.0251
      3 C          62.9899   91.3030    2.9537 C.3     1  UNL1        0.0116
      4 C          61.6456   91.6810    3.5012 C.3     1  UNL1        0.0854
      5 C          60.9876   92.9549    3.0607 C.2     1  UNL1        0.2261
      6 O          59.6432   93.3329    3.6083 O.2     1  UNL1       -0.2749
      7 N          61.6739   93.8509    2.0728 N.am    1  UNL1       -0.2715
      8 C          64.7301   95.3575    1.0074 C.ar    1  UNL1        0.1392
      9 C          65.4164   96.2535    0.0194 C.ar    1  UNL1        0.0368
     10 C          65.0773   96.1609   -1.4388 C.ar    1  UNL1        0.0062
     11 C          64.0518   95.1724   -1.9090 C.ar    1  UNL1        0.0368
     12 C          63.3655   94.2763   -0.9210 C.ar    1  UNL1        0.1392
     13 C          63.7046   94.3689    0.5372 C.ar    1  UNL1        0.0636
     14 C          65.1721   96.7920    3.1280 C.3     1  UNL1        0.2525
     15 O          65.0692   95.4501    2.4657 O.3     1  UNL1       -0.4716
     16 O          62.3400   93.2878   -1.3913 O.3     1  UNL1       -0.4716
     17 C          61.4288   93.6369   -2.5304 C.3     1  UNL1        0.2525
     18 C          61.0158   95.1249    1.6323 C.3     1  UNL1        0.1395
     19 C          59.8480   95.0797    0.6921 C.ar    1  UNL1        0.0790
     20 C          59.2980   96.3514    0.1176 C.ar    1  UNL1        0.0165
     21 C          58.1301   96.3062   -0.8226 C.ar    1  UNL1        0.0028
     22 C          57.5123   94.9892   -1.1884 C.ar    1  UNL1        0.0177
     23 C          56.3444   94.9440   -2.1287 C.ar    1  UNL1        0.0015
     24 C          55.7266   93.6270   -2.4944 C.ar    1  UNL1        0.0001
     25 C          56.2767   92.3552   -1.9199 C.ar    1  UNL1        0.0015
     26 C          57.4445   92.4004   -0.9797 C.ar    1  UNL1        0.0191
     27 C          58.0623   93.7174   -0.6139 C.ar    1  UNL1        0.0809
     28 N          59.2302   93.7627    0.3263 N.ar    1  UNL1       -0.2480
@<TRIPOS>BOND
     1    14    15    1
     2    15     8    1
     3     8     9   ar
     4     9    10   ar
     5    10    11   ar
     6    11    12   ar
     7    12    16    1
     8    16    17    1
     9    12    13   ar
    10    13     1    1
    11     1     2    1
    12     2     3    1
    13     3     4    1
    14     4     5    1
    15     5     6    2
    16     5     7   am
    17     7    18    1
    18    18    19    1
    19    19    20   ar
    20    20    21   ar
    21    21    22   ar
    22    22    23   ar
    23    23    24   ar
    24    24    25   ar
    25    25    26   ar
    26    26    27   ar
    27    27    28   ar
    28    13     8   ar
    29     7     1    1
    30    28    19   ar
    31    27    22   ar
@<TRIPOS>MOLECULE
*****
 28 31 0 0 0
SMALL
GASTEIGER

@<TRIPOS>ATOM
      1 C          63.1300   93.6163    1.3260 C.3     1  UNL1        0.1041
      2 C          63.7865   92.3551    1.8039 C.3     1  UNL1        0.0251
      3 C          63.0952   91.4850    2.8114 C.3     1  UNL1        0.0116
      4 C          61.7475   91.8761    3.3411 C.3     1  UNL1        0.0854
      5 C          61.0909   93.1373    2.8631 C.2     1  UNL1        0.2261
      6 O          59.7432   93.5283    3.3928 O.2     1  UNL1       -0.2749
      7 N          61.7821   94.0073    1.8556 N.am    1  UNL1       -0.2715
      8 C          63.4768   94.3679   -1.1367 C.ar    1  UNL1        0.1392
      9 C          64.1680   95.2380   -2.1443 C.ar    1  UNL1        0.0368
     10 C          65.2036   96.2265   -1.6967 C.ar    1  UNL1        0.0062
     11 C          65.5480   96.3450   -0.2416 C.ar    1  UNL1        0.0368
     12 C          64.8568   95.4749    0.7660 C.ar    1  UNL1        0.1392
     13 C          63.8212   94.4863    0.3184 C.ar    1  UNL1        0.0636
     14 C          61.5266   93.7158   -2.7246 C.3     1  UNL1        0.2525
     15 O          62.4411   93.3794   -1.5843 O.3     1  UNL1       -0.4716
     16 O          65.2012   95.5933    2.2211 O.3     1  UNL1       -0.4716
     17 C          64.8588   96.8451    2.9734 C.3     1  UNL1        0.2525
     18 C          61.1256   95.2685    1.3777 C.3     1  UNL1        0.1395
     19 C          59.8887   95.1962    0.5322 C.ar    1  UNL1        0.0790
     20 C          59.2322   96.4574    0.0542 C.ar    1  UNL1        0.0165
     21 C          57.9954   96.3852   -0.7913 C.ar    1  UNL1        0.0028
     22 C          57.4149   95.0517   -1.1588 C.ar    1  UNL1        0.0177
     23 C          56.1781   94.9794   -2.0043 C.ar    1  UNL1        0.0015
     24 C          55.5977   93.6460   -2.3717 C.ar    1  UNL1        0.0001
     25 C          56.2541   92.3848   -1.8937 C.ar    1  UNL1        0.0015
     26 C          57.4910   92.4571   -1.0482 C.ar    1  UNL1        0.0191
     27 C          58.0714   93.7905   -0.6808 C.ar    1  UNL1        0.0809
     28 N          59.3083   93.8628    0.1648 N.ar    1  UNL1       -0.2480
@<TRIPOS>BOND
     1    14    15    1
     2    15     8    1
     3     8     9   ar
     4     9    10   ar
     5    10    11   ar
     6    11    12   ar
     7    12    16    1
     8    16    17    1
     9    12    13   ar
    10    13     1    1
    11     1     2    1
    12     2     3    1
    13     3     4    1
    14     4     5    1
    15     5     6    2
    16     5     7   am
    17     7    18    1
    18    18    19    1
    19    19    20   ar
    20    20    21   ar
    21    21    22   ar
    22    22    23   ar
    23    23    24   ar
    24    24    25   ar
    25    25    26   ar
    26    26    27   ar
    27    27    28   ar
    28    13     8   ar
    29     7     1    1
    30    28    19   ar
    31    27    22   ar
@<TRIPOS>MOLECULE
*****
 28 31 0 0 0
SMALL
GASTEIGER

@<TRIPOS>ATOM
      1 C          63.5897   89.4748   14.7815 C.3     1  UNL1        0.1041
      2 C          63.0405   90.1711   15.9913 C.3     1  UNL1        0.0251
      3 C          62.7772   89.3956   17.2480 C.3     1  UNL1        0.0116
      4 C          63.0631   87.9239   17.2950 C.3     1  UNL1        0.0854
      5 C          63.6123   87.2276   16.0852 C.2     1  UNL1        0.2261
      6 O          63.8982   85.7559   16.1322 O.2     1  UNL1       -0.2749
      7 N          63.8756   88.0030   14.8285 N.am    1  UNL1       -0.2715
      8 C          62.9067   90.1438   12.3657 C.ar    1  UNL1        0.1392
      9 C          63.1700   90.9192   11.1090 C.ar    1  UNL1        0.0368
     10 C          64.3795   91.8010   11.0112 C.ar    1  UNL1        0.0062
     11 C          65.3257   91.9073   12.1702 C.ar    1  UNL1        0.0368
     12 C          65.0625   91.1319   13.4270 C.ar    1  UNL1        0.1392
     13 C          63.8529   90.2502   13.5248 C.ar    1  UNL1        0.0636
     14 C          60.3838   89.7261   11.9070 C.3     1  UNL1        0.2525
     15 O          61.6972   89.2621   12.4634 O.3     1  UNL1       -0.4716
     16 O          66.0087   91.2383   14.5860 O.3     1  UNL1       -0.4716
     17 C          66.1331   92.5311   15.3365 C.3     1  UNL1        0.2525
     18 C          64.4247   87.3066   13.6188 C.3     1  UNL1        0.1395
     19 C          63.8607   85.9831   13.1946 C.ar    1  UNL1        0.0790
     20 C          62.8264   85.9215   12.1099 C.ar    1  UNL1        0.0165
     21 C          62.2624   84.5979   11.6857 C.ar    1  UNL1        0.0028
     22 C          62.7325   83.3359   12.3462 C.ar    1  UNL1        0.0177
     23 C          62.1685   82.0123   11.9221 C.ar    1  UNL1        0.0015
     24 C          62.6386   80.7504   12.5826 C.ar    1  UNL1        0.0001
     25 C          63.6728   80.8119   13.6673 C.ar    1  UNL1        0.0015
     26 C          64.2369   82.1355   14.0915 C.ar    1  UNL1        0.0191
     27 C          63.7668   83.3975   13.4309 C.ar    1  UNL1        0.0809
     28 N          64.3308   84.7211   13.8551 N.ar    1  UNL1       -0.2480
@<TRIPOS>BOND
     1    14    15    1
     2    15     8    1
     3     8     9   ar
     4     9    10   ar
     5    10    11   ar
     6    11    12   ar
     7    12    16    1
     8    16    17    1
     9    12    13   ar
    10    13     1    1
    11     1     2    1
    12     2     3    1
    13     3     4    1
    14     4     5    1
    15     5     6    2
    16     5     7   am
    17     7    18    1
    18    18    19    1
    19    19    20   ar
    20    20    21   ar
    21    21    22   ar
    22    22    23   ar
    23    23    24   ar
    24    24    25   ar
    25    25    26   ar
    26    26    27   ar
    27    27    28   ar
    28    13     8   ar
    29     7     1    1
    30    28    19   ar
    31    27    22   ar
@<TRIPOS>MOLECULE
*****
 28 31 0 0 0
SMALL
GASTEIGER

@<TRIPOS>ATOM
      1 C          63.5960   89.4797   14.7870 C.3     1  UNL1        0.1041
      2 C          63.0455   90.1763   15.9961 C.3     1  UNL1        0.0251
      3 C          62.7826   89.4015   17.2533 C.3     1  UNL1        0.0116
      4 C          63.0702   87.9301   17.3015 C.3     1  UNL1        0.0854
      5 C          63.6206   87.2335   16.0925 C.2     1  UNL1        0.2261
      6 O          63.9082   85.7622   16.1407 O.2     1  UNL1       -0.2749
      7 N          63.8835   88.0083   14.8353 N.am    1  UNL1       -0.2715
      8 C          65.0667   91.1386   13.4324 C.ar    1  UNL1        0.1392
      9 C          65.3296   91.9133   12.1752 C.ar    1  UNL1        0.0368
     10 C          64.3847   91.8040   11.0154 C.ar    1  UNL1        0.0062
     11 C          63.1769   90.9199   11.1128 C.ar    1  UNL1        0.0368
     12 C          62.9140   90.1451   12.3700 C.ar    1  UNL1        0.1392
     13 C          63.8589   90.2544   13.5298 C.ar    1  UNL1        0.0636
     14 C          66.1622   92.5528   15.3166 C.3     1  UNL1        0.2525
     15 O          66.0117   91.2479   14.5922 O.3     1  UNL1       -0.4716
     16 O          61.7062   89.2610   12.4674 O.3     1  UNL1       -0.4716
     17 C          60.3899   89.7263   11.9188 C.3     1  UNL1        0.2525
     18 C          64.4340   87.3116   13.6263 C.3     1  UNL1        0.1395
     19 C          63.8672   85.9902   13.1991 C.ar    1  UNL1        0.0790
     20 C          62.8321   85.9333   12.1151 C.ar    1  UNL1        0.0165
     21 C          62.2653   84.6118   11.6879 C.ar    1  UNL1        0.0028
     22 C          62.7337   83.3472   12.3448 C.ar    1  UNL1        0.0177
     23 C          62.1669   82.0258   11.9177 C.ar    1  UNL1        0.0015
     24 C          62.6353   80.7613   12.5746 C.ar    1  UNL1        0.0001
     25 C          63.6705   80.8182   13.6587 C.ar    1  UNL1        0.0015
     26 C          64.2372   82.1396   14.0858 C.ar    1  UNL1        0.0191
     27 C          63.7688   83.4041   13.4289 C.ar    1  UNL1        0.0809
     28 N          64.3356   84.7257   13.8560 N.ar    1  UNL1       -0.2480
@<TRIPOS>BOND
     1    14    15    1
     2    15     8    1
     3     8     9   ar
     4     9    10   ar
     5    10    11   ar
     6    11    12   ar
     7    12    16    1
     8    16    17    1
     9    12    13   ar
    10    13     1    1
    11     1     2    1
    12     2     3    1
    13     3     4    1
    14     4     5    1
    15     5     6    2
    16     5     7   am
    17     7    18    1
    18    18    19    1
    19    19    20   ar
    20    20    21   ar
    21    21    22   ar
    22    22    23   ar
    23    23    24   ar
    24    24    25   ar
    25    25    26   ar
    26    26    27   ar
    27    27    28   ar
    28    13     8   ar
    29     7     1    1
    30    28    19   ar
    31    27    22   ar
@<TRIPOS>MOLECULE
*****
 28 31 0 0 0
SMALL
GASTEIGER

@<TRIPOS>ATOM
      1 C          62.2666   89.8566   12.3577 C.3     1  UNL1        0.1041
      2 C          61.0829   90.6845   11.9534 C.3     1  UNL1        0.0251
      3 C          59.9530   90.0564   11.1925 C.3     1  UNL1        0.0116
      4 C          60.0068   88.6005   10.8359 C.3     1  UNL1        0.0854
      5 C          61.1905   87.7725   11.2402 C.2     1  UNL1        0.2261
      6 O          61.2443   86.3166   10.8836 O.2     1  UNL1       -0.2749
      7 N          62.3204   88.4005   12.0010 N.am    1  UNL1       -0.2715
      8 C          63.5214   90.2606   14.5965 C.ar    1  UNL1        0.1392
      9 C          64.6513   90.8887   15.3574 C.ar    1  UNL1        0.0368
     10 C          65.6563   91.7406   14.6403 C.ar    1  UNL1        0.0062
     11 C          65.5314   91.9646   13.1624 C.ar    1  UNL1        0.0368
     12 C          64.4015   91.3365   12.4015 C.ar    1  UNL1        0.1392
     13 C          63.3965   90.4846   13.1185 C.ar    1  UNL1        0.0636
     14 C          62.8438   88.8356   16.6605 C.3     1  UNL1        0.2525
     15 O          62.5164   89.4087   15.3135 O.3     1  UNL1       -0.4716
     16 O          64.2766   91.5605   10.9236 O.3     1  UNL1       -0.4716
     17 C          64.9891   92.7110   10.2765 C.3     1  UNL1        0.2525
     18 C          63.5040   87.5726   12.4053 C.3     1  UNL1        0.1395
     19 C          63.3031   86.1790   12.9223 C.ar    1  UNL1        0.0790
     20 C          63.1702   85.9379   14.3969 C.ar    1  UNL1        0.0165
     21 C          62.9693   84.5443   14.9139 C.ar    1  UNL1        0.0028
     22 C          62.9012   83.3916   13.9564 C.ar    1  UNL1        0.0177
     23 C          62.7002   81.9980   14.4735 C.ar    1  UNL1        0.0015
     24 C          62.6321   80.8454   13.5160 C.ar    1  UNL1        0.0001
     25 C          62.7649   81.0864   12.0415 C.ar    1  UNL1        0.0015
     26 C          62.9659   82.4800   11.5244 C.ar    1  UNL1        0.0191
     27 C          63.0340   83.6326   12.4819 C.ar    1  UNL1        0.0809
     28 N          63.2350   85.0264   11.9648 N.ar    1  UNL1       -0.2480
@<TRIPOS>BOND
     1    14    15    1
     2    15     8    1
     3     8     9   ar
     4     9    10   ar
     5    10    11   ar
     6    11    12   ar
     7    12    16    1
     8    16    17    1
     9    12    13   ar
    10    13     1    1
    11     1     2    1
    12     2     3    1
    13     3     4    1
    14     4     5    1
    15     5     6    2
    16     5     7   am
    17     7    18    1
    18    18    19    1
    19    19    20   ar
    20    20    21   ar
    21    21    22   ar
    22    22    23   ar
    23    23    24   ar
    24    24    25   ar
    25    25    26   ar
    26    26    27   ar
    27    27    28   ar
    28    13     8   ar
    29     7     1    1
    30    28    19   ar
    31    27    22   ar
@<TRIPOS>MOLECULE
*****
 28 31 0 0 0
SMALL
GASTEIGER

@<TRIPOS>ATOM
      1 C          62.2445   89.8425   12.3505 C.3     1  UNL1        0.1041
      2 C          61.0529   90.6660   11.9605 C.3     1  UNL1        0.0251
      3 C          59.9200   90.0355   11.2060 C.3     1  UNL1        0.0116
      4 C          59.9788   88.5817   10.8416 C.3     1  UNL1        0.0854
      5 C          61.1703   87.7582   11.2316 C.2     1  UNL1        0.2261
      6 O          61.2291   86.3044   10.8672 O.2     1  UNL1       -0.2749
      7 N          62.3032   88.3886   11.9860 N.am    1  UNL1       -0.2715
      8 C          64.3753   91.3287   12.3825 C.ar    1  UNL1        0.1392
      9 C          65.5081   91.9592   13.1370 C.ar    1  UNL1        0.0368
     10 C          65.6431   91.7338   14.6138 C.ar    1  UNL1        0.0062
     11 C          64.6452   90.8781   15.3362 C.ar    1  UNL1        0.0368
     12 C          63.5123   90.2476   14.5818 C.ar    1  UNL1        0.1392
     13 C          63.3773   90.4730   13.1049 C.ar    1  UNL1        0.0636
     14 C          64.9803   92.6810   10.2483 C.3     1  UNL1        0.2525
     15 O          64.2403   91.5541   10.9057 O.3     1  UNL1       -0.4716
     16 O          62.5144   89.3919   15.3042 O.3     1  UNL1       -0.4716
     17 C          62.8390   88.8457   16.6629 C.3     1  UNL1        0.2525
     18 C          63.4948   87.5652   12.3761 C.3     1  UNL1        0.1395
     19 C          63.3049   86.1733   12.9018 C.ar    1  UNL1        0.0790
     20 C          63.1990   85.9376   14.3794 C.ar    1  UNL1        0.0165
     21 C          63.0091   84.5457   14.9052 C.ar    1  UNL1        0.0028
     22 C          62.9252   83.3894   13.9534 C.ar    1  UNL1        0.0177
     23 C          62.7354   81.9975   14.4792 C.ar    1  UNL1        0.0015
     24 C          62.6515   80.8412   13.5274 C.ar    1  UNL1        0.0001
     25 C          62.7574   81.0768   12.0498 C.ar    1  UNL1        0.0015
     26 C          62.9473   82.4688   11.5240 C.ar    1  UNL1        0.0191
     27 C          63.0312   83.6250   12.4758 C.ar    1  UNL1        0.0809
     28 N          63.2210   85.0170   11.9500 N.ar    1  UNL1       -0.2480
@<TRIPOS>BOND
     1    14    15    1
     2    15     8    1
     3     8     9   ar
     4     9    10   ar
     5    10    11   ar
     6    11    12   ar
     7    12    16    1
     8    16    17    1
     9    12    13   ar
    10    13     1    1
    11     1     2    1
    12     2     3    1
    13     3     4    1
    14     4     5    1
    15     5     6    2
    16     5     7   am
    17     7    18    1
    18    18    19    1
    19    19    20   ar
    20    20    21   ar
    21    21    22   ar
    22    22    23   ar
    23    23    24   ar
    24    24    25   ar
    25    25    26   ar
    26    26    27   ar
    27    27    28   ar
    28    13     8   ar
    29     7     1    1
    30    28    19   ar
    31    27    22   ar
@<TRIPOS>MOLECULE
*****
 28 31 0 0 0
SMALL
GASTEIGER

@<TRIPOS>ATOM
      1 C          61.6450   86.5010   10.5840 C.3     1  UNL1        0.1041
      2 C          60.5364   86.4851    9.5738 C.3     1  UNL1        0.0251
      3 C          59.6320   87.6737    9.4339 C.3     1  UNL1        0.0116
      4 C          59.8363   88.8781   10.3043 C.3     1  UNL1        0.0854
      5 C          60.9450   88.8940   11.3145 C.2     1  UNL1        0.2261
      6 O          61.1493   90.0985   12.1849 O.2     1  UNL1       -0.2749
      7 N          61.8493   87.7056   11.4544 N.am    1  UNL1       -0.2715
      8 C          63.3160   84.8095    9.5367 C.ar    1  UNL1        0.1392
      9 C          64.2203   83.6211    9.6766 C.ar    1  UNL1        0.0368
     10 C          64.3581   82.9355   11.0037 C.ar    1  UNL1        0.0062
     11 C          63.5915   83.4385   12.1908 C.ar    1  UNL1        0.0368
     12 C          62.6871   84.6270   12.0510 C.ar    1  UNL1        0.1392
     13 C          62.5494   85.3126   10.7239 C.ar    1  UNL1        0.0636
     14 C          62.4899   84.7984    7.0735 C.3     1  UNL1        0.2525
     15 O          63.1782   85.4951    8.2097 O.3     1  UNL1       -0.4716
     16 O          61.9206   85.1300   13.2381 O.3     1  UNL1       -0.4716
     17 C          62.1214   84.4975   14.5834 C.3     1  UNL1        0.2525
     18 C          62.9580   87.7215   12.4647 C.3     1  UNL1        0.1395
     19 C          63.7051   88.9930   12.7382 C.ar    1  UNL1        0.0790
     20 C          64.2808   89.2465   14.1000 C.ar    1  UNL1        0.0165
     21 C          65.0280   90.5181   14.3735 C.ar    1  UNL1        0.0028
     22 C          65.1996   91.5361   13.2853 C.ar    1  UNL1        0.0177
     23 C          65.9468   92.8077   13.5588 C.ar    1  UNL1        0.0015
     24 C          66.1183   93.8257   12.4706 C.ar    1  UNL1        0.0001
     25 C          65.5426   93.5722   11.1089 C.ar    1  UNL1        0.0015
     26 C          64.7954   92.3006   10.8354 C.ar    1  UNL1        0.0191
     27 C          64.6239   91.2826   11.9236 C.ar    1  UNL1        0.0809
     28 N          63.8767   90.0110   11.6500 N.ar    1  UNL1       -0.2480
@<TRIPOS>BOND
     1    14    15    1
     2    15     8    1
     3     8     9   ar
     4     9    10   ar
     5    10    11   ar
     6    11    12   ar
     7    12    16    1
     8    16    17    1
     9    12    13   ar
    10    13     1    1
    11     1     2    1
    12     2     3    1
    13     3     4    1
    14     4     5    1
    15     5     6    2
    16     5     7   am
    17     7    18    1
    18    18    19    1
    19    19    20   ar
    20    20    21   ar
    21    21    22   ar
    22    22    23   ar
    23    23    24   ar
    24    24    25   ar
    25    25    26   ar
    26    26    27   ar
    27    27    28   ar
    28    13     8   ar
    29     7     1    1
    30    28    19   ar
    31    27    22   ar
