@<TRIPOS>MOLECULE
*****
 35 39 0 0 0
SMALL
GASTEIGER

@<TRIPOS>ATOM
      1 C          63.0057   87.2780   12.4154 C.2     1  UNL1        0.2507
      2 O          63.5747   87.6488   13.7528 O.2     1  UNL1       -0.2698
      3 N          62.3283   88.3186   11.5738 N.am    1  UNL1       -0.2723
      4 C          61.7593   87.9477   10.2364 C.3     1  UNL1        0.1257
      5 C          61.0820   88.9883    9.3948 C.3     1  UNL1        0.1637
      6 O          60.9736   90.3999    9.8907 O.3     1  UNL1       -0.3502
      7 C          61.5425   90.7707   11.2281 C.3     1  UNL1        0.1622
      8 C          62.2199   89.7301   12.0697 C.3     1  UNL1        0.1097
      9 C          63.2524   84.1780    9.9498 C.ar    1  UNL1        0.1349
     10 C          63.1440   85.5895   10.4456 C.ar    1  UNL1        0.0427
     11 C          63.1141   85.8664   11.9195 C.ar    1  UNL1        0.0759
     12 C          63.1926   84.7319   12.8975 C.ar    1  UNL1        0.1071
     13 C          63.3011   83.3204   12.4017 C.ar    1  UNL1        0.0198
     14 C          63.3309   83.0435   10.9278 C.ar    1  UNL1        0.0137
     15 C          63.4393   81.6319   10.4319 C.3     1  UNL1        0.0343
     16 N          63.1628   85.0088   14.3715 N.ar    1  UNL1       -0.1477
     17 N          64.3276   85.4437   15.2107 N.ar    1  UNL1       -0.1447
     18 C          63.8476   85.6032   16.6228 C.ar    1  UNL1        0.1446
     19 C          62.3861   85.2669   16.6564 C.ar    1  UNL1        0.1446
     20 N          61.9629   84.8996   15.2650 N.ar    1  UNL1       -0.1447
     21 C          62.7385   84.9131    7.5114 C.3     1  UNL1        0.2525
     22 O          63.2823   83.9011    8.4758 O.3     1  UNL1       -0.4717
     23 C          62.7889   90.1010   13.4072 C.3     1  UNL1        0.0510
     24 C          64.0862   90.8495   13.4889 C.ar    1  UNL1        0.0086
     25 C          64.6380   91.5290   12.2708 C.ar    1  UNL1        0.0189
     26 C          65.9353   92.2775   12.3525 C.ar    1  UNL1        0.1027
     27 C          66.6808   92.3465   13.6523 C.ar    1  UNL1        0.0232
     28 C          66.1290   91.6670   14.8704 C.ar    1  UNL1        0.0309
     29 C          64.8316   90.9185   14.7886 C.ar    1  UNL1        0.1363
     30 F          64.2798   90.2390   16.0067 F       1  UNL1       -0.2045
     31 N          66.4871   92.9571   11.1344 N.ar    1  UNL1       -0.1478
     32 N          65.8976   94.1545   10.4496 N.ar    1  UNL1       -0.1447
     33 C          66.7716   94.4959    9.2792 C.ar    1  UNL1        0.1446
     34 C          67.9011   93.5096    9.2407 C.ar    1  UNL1        0.1446
     35 N          67.7253   92.5586   10.3873 N.ar    1  UNL1       -0.1447
@<TRIPOS>BOND
     1    21    22    1
     2    22     9    1
     3     9    10   ar
     4    10    11   ar
     5    11     1    1
     6     1     2    2
     7     1     3   am
     8     3     4    1
     9     4     5    1
    10     5     6    1
    11     6     7    1
    12     7     8    1
    13     8    23    1
    14    23    24    1
    15    24    25   ar
    16    25    26   ar
    17    26    31    1
    18    31    32   ar
    19    32    33   ar
    20    33    34   ar
    21    34    35   ar
    22    26    27   ar
    23    27    28   ar
    24    28    29   ar
    25    29    30    1
    26    11    12   ar
    27    12    16    1
    28    16    17   ar
    29    17    18   ar
    30    18    19   ar
    31    19    20   ar
    32    12    13   ar
    33    13    14   ar
    34    14    15    1
    35    14     9   ar
    36     8     3    1
    37    29    24   ar
    38    20    16   ar
    39    35    31   ar
@<TRIPOS>MOLECULE
*****
 35 39 0 0 0
SMALL
GASTEIGER

@<TRIPOS>ATOM
      1 C          62.8504   87.2812   12.1115 C.2     1  UNL1        0.2507
      2 O          63.7412   87.8384   13.1819 O.2     1  UNL1       -0.2698
      3 N          61.7961   88.1466   11.4874 N.am    1  UNL1       -0.2723
      4 C          60.9052   87.5893   10.4169 C.3     1  UNL1        0.1257
      5 C          59.8509   88.4547    9.7928 C.3     1  UNL1        0.1637
      6 O          59.6875   89.8775   10.2392 O.3     1  UNL1       -0.3502
      7 C          60.5783   90.4347   11.3096 C.3     1  UNL1        0.1622
      8 C          61.6326   89.5693   11.9337 C.3     1  UNL1        0.1097
      9 C          63.1896   84.1055    9.7557 C.ar    1  UNL1        0.1349
     10 C          63.0262   85.5281   10.2020 C.ar    1  UNL1        0.0427
     11 C          63.0138   85.8584   11.6651 C.ar    1  UNL1        0.0759
     12 C          63.1649   84.7661   12.6819 C.ar    1  UNL1        0.1071
     13 C          63.3283   83.3434   12.2356 C.ar    1  UNL1        0.0198
     14 C          63.3406   83.0131   10.7725 C.ar    1  UNL1        0.0137
     15 C          63.5041   81.5903   10.3262 C.3     1  UNL1        0.0343
     16 N          63.1525   85.0964   14.1451 N.ar    1  UNL1       -0.1477
     17 N          64.2807   85.7104   14.9199 N.ar    1  UNL1       -0.1447
     18 C          63.8353   85.8643   16.3439 C.ar    1  UNL1        0.1446
     19 C          62.4318   85.3454   16.4492 C.ar    1  UNL1        0.1446
     20 N          62.0098   84.8708   15.0903 N.ar    1  UNL1       -0.1447
     21 C          62.7116   84.7799    7.2927 C.3     1  UNL1        0.2525
     22 O          63.2019   83.7751    8.2926 O.3     1  UNL1       -0.4717
     23 C          62.5235   90.1266   13.0042 C.3     1  UNL1        0.0510
     24 C          63.7206   90.9494   12.6304 C.ar    1  UNL1        0.0086
     25 C          64.7377   91.3102   13.6723 C.ar    1  UNL1        0.0189
     26 C          65.9348   92.1330   13.2986 C.ar    1  UNL1        0.1027
     27 C          66.1150   92.5951   11.8829 C.ar    1  UNL1        0.0232
     28 C          65.0980   92.2344   10.8410 C.ar    1  UNL1        0.0309
     29 C          63.9008   91.4115   11.2148 C.ar    1  UNL1        0.1363
     30 F          62.8838   91.0507   10.1729 F       1  UNL1       -0.2045
     31 N          66.9518   92.4938   14.3405 N.ar    1  UNL1       -0.1478
     32 N          67.4384   93.8773   14.6559 N.ar    1  UNL1       -0.1447
     33 C          68.4482   93.7729   15.7602 C.ar    1  UNL1        0.1446
     34 C          68.5856   92.3250   16.1274 C.ar    1  UNL1        0.1446
     35 N          67.6609   91.5345   15.2499 N.ar    1  UNL1       -0.1447
@<TRIPOS>BOND
     1    21    22    1
     2    22     9    1
     3     9    10   ar
     4    10    11   ar
     5    11     1    1
     6     1     2    2
     7     1     3   am
     8     3     4    1
     9     4     5    1
    10     5     6    1
    11     6     7    1
    12     7     8    1
    13     8    23    1
    14    23    24    1
    15    24    25   ar
    16    25    26   ar
    17    26    31    1
    18    31    32   ar
    19    32    33   ar
    20    33    34   ar
    21    34    35   ar
    22    26    27   ar
    23    27    28   ar
    24    28    29   ar
    25    29    30    1
    26    11    12   ar
    27    12    16    1
    28    16    17   ar
    29    17    18   ar
    30    18    19   ar
    31    19    20   ar
    32    12    13   ar
    33    13    14   ar
    34    14    15    1
    35    14     9   ar
    36     8     3    1
    37    29    24   ar
    38    20    16   ar
    39    35    31   ar
@<TRIPOS>MOLECULE
*****
 35 39 0 0 0
SMALL
GASTEIGER

@<TRIPOS>ATOM
      1 C          63.8366   86.8550   13.6674 C.2     1  UNL1        0.2507
      2 O          64.6889   87.3339   14.8050 O.2     1  UNL1       -0.2698
      3 N          63.3023   87.8356   12.6659 N.am    1  UNL1       -0.2723
      4 C          62.4500   87.3566   11.5283 C.3     1  UNL1        0.1257
      5 C          61.9157   88.3372   10.5268 C.3     1  UNL1        0.1637
      6 O          62.2338   89.7968   10.6629 O.3     1  UNL1       -0.3502
      7 C          63.0860   90.2757   11.8005 C.3     1  UNL1        0.1622
      8 C          63.6203   89.2951   12.8020 C.3     1  UNL1        0.1097
      9 C          63.4518   83.2316   12.0949 C.ar    1  UNL1        0.1349
     10 C          63.7699   84.6911   12.2310 C.ar    1  UNL1        0.0427
     11 C          63.5185   85.3954   13.5313 C.ar    1  UNL1        0.0759
     12 C          62.9492   84.6401   14.6955 C.ar    1  UNL1        0.1071
     13 C          62.6311   83.1806   14.5594 C.ar    1  UNL1        0.0198
     14 C          62.8824   82.4763   13.2591 C.ar    1  UNL1        0.0137
     15 C          62.5644   81.0167   13.1229 C.3     1  UNL1        0.0343
     16 N          62.6978   85.3444   15.9958 N.ar    1  UNL1       -0.1477
     17 N          63.7302   85.6784   17.0316 N.ar    1  UNL1       -0.1447
     18 C          63.0405   86.3788   18.1646 C.ar    1  UNL1        0.1446
     19 C          61.5818   86.4777   17.8290 C.ar    1  UNL1        0.1446
     20 N          61.3701   85.8385   16.4887 N.ar    1  UNL1       -0.1447
     21 C          63.8976   83.3213    9.5369 C.3     1  UNL1        0.2525
     22 O          63.7031   82.5273   10.7945 O.3     1  UNL1       -0.4717
     23 C          64.4727   89.7741   13.9397 C.3     1  UNL1        0.0510
     24 C          65.2217   91.0684   13.8224 C.ar    1  UNL1        0.0086
     25 C          65.7910   91.4883   12.4997 C.ar    1  UNL1        0.0189
     26 C          66.5400   92.7826   12.3825 C.ar    1  UNL1        0.1027
     27 C          66.7198   93.6570   13.5880 C.ar    1  UNL1        0.0232
     28 C          66.1506   93.2370   14.9107 C.ar    1  UNL1        0.0309
     29 C          65.4015   91.9427   15.0279 C.ar    1  UNL1        0.1363
     30 F          64.8323   91.5227   16.3506 F       1  UNL1       -0.2045
     31 N          67.1092   93.2026   11.0597 N.ar    1  UNL1       -0.1478
     32 N          67.7895   92.3060   10.0679 N.ar    1  UNL1       -0.1447
     33 C          68.1988   93.1422    8.8918 C.ar    1  UNL1        0.1446
     34 C          67.7716   94.5555    9.1567 C.ar    1  UNL1        0.1446
     35 N          67.0982   94.5927   10.4965 N.ar    1  UNL1       -0.1447
@<TRIPOS>BOND
     1    21    22    1
     2    22     9    1
     3     9    10   ar
     4    10    11   ar
     5    11     1    1
     6     1     2    2
     7     1     3   am
     8     3     4    1
     9     4     5    1
    10     5     6    1
    11     6     7    1
    12     7     8    1
    13     8    23    1
    14    23    24    1
    15    24    25   ar
    16    25    26   ar
    17    26    31    1
    18    31    32   ar
    19    32    33   ar
    20    33    34   ar
    21    34    35   ar
    22    26    27   ar
    23    27    28   ar
    24    28    29   ar
    25    29    30    1
    26    11    12   ar
    27    12    16    1
    28    16    17   ar
    29    17    18   ar
    30    18    19   ar
    31    19    20   ar
    32    12    13   ar
    33    13    14   ar
    34    14    15    1
    35    14     9   ar
    36     8     3    1
    37    29    24   ar
    38    20    16   ar
    39    35    31   ar
@<TRIPOS>MOLECULE
*****
 35 39 0 0 0
SMALL
GASTEIGER

@<TRIPOS>ATOM
      1 C          63.1449   86.8634   12.8371 C.2     1  UNL1        0.2507
      2 O          63.5713   87.8570   13.8767 O.2     1  UNL1       -0.2698
      3 N          62.4318   87.3291   11.6023 N.am    1  UNL1       -0.2723
      4 C          62.0053   86.3354   10.5627 C.3     1  UNL1        0.1257
      5 C          61.2922   86.8011    9.3280 C.3     1  UNL1        0.1637
      6 O          61.0055   88.2605    9.1329 O.3     1  UNL1       -0.3502
      7 C          61.4319   89.2541   10.1725 C.3     1  UNL1        0.1622
      8 C          62.1451   88.7884   11.4072 C.3     1  UNL1        0.1097
      9 C          64.0702   83.0854   12.0492 C.ar    1  UNL1        0.1349
     10 C          63.7835   84.5447   11.8541 C.ar    1  UNL1        0.0427
     11 C          63.4316   85.4039   13.0322 C.ar    1  UNL1        0.0759
     12 C          63.3664   84.8038   14.4053 C.ar    1  UNL1        0.1071
     13 C          63.6530   83.3445   14.6005 C.ar    1  UNL1        0.0198
     14 C          64.0049   82.4853   13.4224 C.ar    1  UNL1        0.0137
     15 C          64.2916   81.0259   13.6175 C.3     1  UNL1        0.0343
     16 N          63.0144   85.6631   15.5834 N.ar    1  UNL1       -0.1477
     17 N          61.8146   85.4977   16.4683 N.ar    1  UNL1       -0.1447
     18 C          61.8591   86.5710   17.5152 C.ar    1  UNL1        0.1446
     19 C          63.0866   87.3998   17.2773 C.ar    1  UNL1        0.1446
     20 N          63.8005   86.8387   16.0834 N.ar    1  UNL1       -0.1447
     21 C          63.3905   81.3177   10.2706 C.3     1  UNL1        0.2525
     22 O          64.4221   82.2261   10.8711 O.3     1  UNL1       -0.4717
     23 C          62.5715   89.7821   12.4469 C.3     1  UNL1        0.0510
     24 C          63.6855   90.7429   12.1538 C.ar    1  UNL1        0.0086
     25 C          64.6901   91.0735   13.2175 C.ar    1  UNL1        0.0189
     26 C          65.8041   92.0342   12.9244 C.ar    1  UNL1        0.1027
     27 C          65.9135   92.6644   11.5675 C.ar    1  UNL1        0.0232
     28 C          64.9088   92.3338   10.5038 C.ar    1  UNL1        0.0309
     29 C          63.7948   91.3730   10.7970 C.ar    1  UNL1        0.1363
     30 F          62.7902   91.0424    9.7333 F       1  UNL1       -0.2045
     31 N          66.8087   92.3648   13.9881 N.ar    1  UNL1       -0.1478
     32 N          68.2999   92.2805   13.8492 N.ar    1  UNL1       -0.1447
     33 C          68.9113   92.7014   15.1527 C.ar    1  UNL1        0.1446
     34 C          67.7980   93.0458   16.0971 C.ar    1  UNL1        0.1446
     35 N          66.4986   92.8378   15.3773 N.ar    1  UNL1       -0.1447
@<TRIPOS>BOND
     1    21    22    1
     2    22     9    1
     3     9    10   ar
     4    10    11   ar
     5    11     1    1
     6     1     2    2
     7     1     3   am
     8     3     4    1
     9     4     5    1
    10     5     6    1
    11     6     7    1
    12     7     8    1
    13     8    23    1
    14    23    24    1
    15    24    25   ar
    16    25    26   ar
    17    26    31    1
    18    31    32   ar
    19    32    33   ar
    20    33    34   ar
    21    34    35   ar
    22    26    27   ar
    23    27    28   ar
    24    28    29   ar
    25    29    30    1
    26    11    12   ar
    27    12    16    1
    28    16    17   ar
    29    17    18   ar
    30    18    19   ar
    31    19    20   ar
    32    12    13   ar
    33    13    14   ar
    34    14    15    1
    35    14     9   ar
    36     8     3    1
    37    29    24   ar
    38    20    16   ar
    39    35    31   ar
@<TRIPOS>MOLECULE
*****
 35 39 0 0 0
SMALL
GASTEIGER

@<TRIPOS>ATOM
      1 C          63.3870   88.5759   12.9414 C.2     1  UNL1        0.2507
      2 O          63.5421   89.5314   11.7957 O.2     1  UNL1       -0.2698
      3 N          63.4082   89.0862   14.3518 N.am    1  UNL1       -0.2723
      4 C          63.2531   88.1306   15.4976 C.3     1  UNL1        0.1257
      5 C          63.2743   88.6409   16.9079 C.3     1  UNL1        0.1637
      6 O          63.4506   90.1069   17.1725 O.3     1  UNL1       -0.3502
      7 C          63.6057   91.0624   16.0267 C.3     1  UNL1        0.1622
      8 C          63.5845   90.5521   14.6164 C.3     1  UNL1        0.1097
      9 C          63.8329   84.6402   13.1898 C.ar    1  UNL1        0.1349
     10 C          64.0093   86.1061   13.4544 C.ar    1  UNL1        0.0427
     11 C          63.2107   87.1099   12.6769 C.ar    1  UNL1        0.0759
     12 C          62.2357   86.6478   11.6348 C.ar    1  UNL1        0.1071
     13 C          62.0594   85.1820   11.3702 C.ar    1  UNL1        0.0198
     14 C          62.8580   84.1782   12.1477 C.ar    1  UNL1        0.0137
     15 C          62.6817   82.7122   11.8831 C.3     1  UNL1        0.0343
     16 N          61.4371   87.6517   10.8572 N.ar    1  UNL1       -0.1477
     17 N          60.3307   88.5081   11.3983 N.ar    1  UNL1       -0.1447
     18 C          59.8145   89.3611   10.2776 C.ar    1  UNL1        0.1446
     19 C          60.6018   89.0319    9.0440 C.ar    1  UNL1        0.1446
     20 N          61.6046   87.9755    9.4022 N.ar    1  UNL1       -0.1447
     21 C          64.1579   83.1841   15.3168 C.3     1  UNL1        0.2525
     22 O          64.6315   83.6363   13.9673 O.3     1  UNL1       -0.4717
     23 C          63.7396   91.5077   13.4706 C.3     1  UNL1        0.0510
     24 C          65.1090   91.9162   13.0148 C.ar    1  UNL1        0.0086
     25 C          65.2654   92.8317   11.8369 C.ar    1  UNL1        0.0189
     26 C          66.6348   93.2402   11.3811 C.ar    1  UNL1        0.1027
     27 C          67.8479   92.7332   12.1032 C.ar    1  UNL1        0.0232
     28 C          67.6916   91.8177   13.2811 C.ar    1  UNL1        0.0309
     29 C          66.3220   91.4093   13.7369 C.ar    1  UNL1        0.1363
     30 F          66.1657   90.4938   14.9148 F       1  UNL1       -0.2045
     31 N          66.7912   94.1557   10.2032 N.ar    1  UNL1       -0.1478
     32 N          67.6627   93.9121    9.0068 N.ar    1  UNL1       -0.1447
     33 C          67.5136   95.0814    8.0791 C.ar    1  UNL1        0.1446
     34 C          66.5500   96.0476    8.7020 C.ar    1  UNL1        0.1446
     35 N          66.1036   95.4754   10.0148 N.ar    1  UNL1       -0.1447
@<TRIPOS>BOND
     1    21    22    1
     2    22     9    1
     3     9    10   ar
     4    10    11   ar
     5    11     1    1
     6     1     2    2
     7     1     3   am
     8     3     4    1
     9     4     5    1
    10     5     6    1
    11     6     7    1
    12     7     8    1
    13     8    23    1
    14    23    24    1
    15    24    25   ar
    16    25    26   ar
    17    26    31    1
    18    31    32   ar
    19    32    33   ar
    20    33    34   ar
    21    34    35   ar
    22    26    27   ar
    23    27    28   ar
    24    28    29   ar
    25    29    30    1
    26    11    12   ar
    27    12    16    1
    28    16    17   ar
    29    17    18   ar
    30    18    19   ar
    31    19    20   ar
    32    12    13   ar
    33    13    14   ar
    34    14    15    1
    35    14     9   ar
    36     8     3    1
    37    29    24   ar
    38    20    16   ar
    39    35    31   ar
@<TRIPOS>MOLECULE
*****
 35 39 0 0 0
SMALL
GASTEIGER

@<TRIPOS>ATOM
      1 C          62.6094   88.7242   11.7802 C.2     1  UNL1        0.2507
      2 O          62.4473   90.2153   11.7683 O.2     1  UNL1       -0.2698
      3 N          63.3403   88.0582   12.9082 N.am    1  UNL1       -0.2723
      4 C          63.5025   86.5670   12.9201 C.3     1  UNL1        0.1257
      5 C          64.2334   85.9011   14.0480 C.3     1  UNL1        0.1637
      6 O          64.8022   86.7263   15.1641 O.3     1  UNL1       -0.3502
      7 C          64.6400   88.2175   15.1521 C.3     1  UNL1        0.1622
      8 C          63.9091   88.8834   14.0242 C.3     1  UNL1        0.1097
      9 C          62.3217   86.0389    8.8723 C.ar    1  UNL1        0.1349
     10 C          62.8905   86.8641    9.9882 C.ar    1  UNL1        0.0427
     11 C          62.0407   87.8989   10.6642 C.ar    1  UNL1        0.0759
     12 C          60.6221   88.1085   10.2241 C.ar    1  UNL1        0.1071
     13 C          60.0533   87.2833    9.1081 C.ar    1  UNL1        0.0198
     14 C          60.9031   86.2485    8.4322 C.ar    1  UNL1        0.0137
     15 C          60.3343   85.4232    7.3161 C.3     1  UNL1        0.0343
     16 N          59.7723   89.1434   10.9001 N.ar    1  UNL1       -0.1477
     17 N          58.9606   88.9415   12.1452 N.ar    1  UNL1       -0.1447
     18 C          58.2716   90.2351   12.4643 C.ar    1  UNL1        0.1446
     19 C          58.6575   91.2366   11.4163 C.ar    1  UNL1        0.1446
     20 N          59.5850   90.5619   10.4496 N.ar    1  UNL1       -0.1447
     21 C          63.8176   83.9188    9.0056 C.3     1  UNL1        0.2525
     22 O          63.1715   85.0040    8.1963 O.3     1  UNL1       -0.4717
     23 C          63.7470   90.3746   14.0123 C.3     1  UNL1        0.0510
     24 C          64.9566   91.2602   13.9637 C.ar    1  UNL1        0.0086
     25 C          65.5931   91.5888   12.6458 C.ar    1  UNL1        0.0189
     26 C          66.8028   92.4744   12.5972 C.ar    1  UNL1        0.1027
     27 C          67.3760   93.0314   13.8665 C.ar    1  UNL1        0.0232
     28 C          66.7395   92.7028   15.1844 C.ar    1  UNL1        0.0309
     29 C          65.5298   91.8172   15.2330 C.ar    1  UNL1        0.1363
     30 F          64.8933   91.4886   16.5509 F       1  UNL1       -0.2045
     31 N          67.4393   92.8029   11.2793 N.ar    1  UNL1       -0.1478
     32 N          67.2027   94.0443   10.4710 N.ar    1  UNL1       -0.1447
     33 C          68.0414   93.9563    9.2304 C.ar    1  UNL1        0.1446
     34 C          68.7963   92.6608    9.2720 C.ar    1  UNL1        0.1446
     35 N          68.4241   91.9480   10.5382 N.ar    1  UNL1       -0.1447
@<TRIPOS>BOND
     1    21    22    1
     2    22     9    1
     3     9    10   ar
     4    10    11   ar
     5    11     1    1
     6     1     2    2
     7     1     3   am
     8     3     4    1
     9     4     5    1
    10     5     6    1
    11     6     7    1
    12     7     8    1
    13     8    23    1
    14    23    24    1
    15    24    25   ar
    16    25    26   ar
    17    26    31    1
    18    31    32   ar
    19    32    33   ar
    20    33    34   ar
    21    34    35   ar
    22    26    27   ar
    23    27    28   ar
    24    28    29   ar
    25    29    30    1
    26    11    12   ar
    27    12    16    1
    28    16    17   ar
    29    17    18   ar
    30    18    19   ar
    31    19    20   ar
    32    12    13   ar
    33    13    14   ar
    34    14    15    1
    35    14     9   ar
    36     8     3    1
    37    29    24   ar
    38    20    16   ar
    39    35    31   ar
@<TRIPOS>MOLECULE
*****
 35 39 0 0 0
SMALL
GASTEIGER

@<TRIPOS>ATOM
      1 C          62.8667   88.8917   12.0949 C.2     1  UNL1        0.2507
      2 O          62.8886   87.6173   12.8857 O.2     1  UNL1       -0.2698
      3 N          61.9471   89.0283   10.9178 N.am    1  UNL1       -0.2723
      4 C          61.9253   90.3029   10.1271 C.3     1  UNL1        0.1257
      5 C          61.0056   90.4395    8.9499 C.3     1  UNL1        0.1637
      6 O          60.1079   89.3016    8.5635 O.3     1  UNL1       -0.3502
      7 C          60.1298   88.0271    9.3542 C.3     1  UNL1        0.1622
      8 C          61.0494   87.8905   10.5314 C.3     1  UNL1        0.1097
      9 C          65.0006   92.2299   11.8645 C.ar    1  UNL1        0.1349
     10 C          64.1028   91.0921   11.4780 C.ar    1  UNL1        0.0427
     11 C          63.7645   90.0296   12.4814 C.ar    1  UNL1        0.0759
     12 C          64.3238   90.1051   13.8711 C.ar    1  UNL1        0.1071
     13 C          65.2215   91.2429   14.2576 C.ar    1  UNL1        0.0198
     14 C          65.5599   92.3053   13.2542 C.ar    1  UNL1        0.0137
     15 C          66.4577   93.4432   13.6406 C.3     1  UNL1        0.0343
     16 N          63.9854   89.0425   14.8745 N.ar    1  UNL1       -0.1477
     17 N          64.5235   87.6425   14.8915 N.ar    1  UNL1       -0.1447
     18 C          63.9202   86.9282   16.0644 C.ar    1  UNL1        0.1446
     19 C          63.0092   87.8869   16.7723 C.ar    1  UNL1        0.1446
     20 N          63.0495   89.1936   16.0369 N.ar    1  UNL1       -0.1447
     21 C          66.6075   93.1967   10.0664 C.3     1  UNL1        0.2525
     22 O          65.3390   93.2924   10.8611 O.3     1  UNL1       -0.4717
     23 C          61.0712   86.6160   11.3221 C.3     1  UNL1        0.0510
     24 C          61.9673   85.4885   10.9029 C.ar    1  UNL1        0.0086
     25 C          62.1248   84.2871   11.7870 C.ar    1  UNL1        0.0189
     26 C          63.0209   83.1596   11.3678 C.ar    1  UNL1        0.1027
     27 C          63.7596   83.2336   10.0643 C.ar    1  UNL1        0.0232
     28 C          63.6022   84.4351    9.1802 C.ar    1  UNL1        0.0309
     29 C          62.7060   85.5626    9.5995 C.ar    1  UNL1        0.1363
     30 F          62.5486   86.7640    8.7154 F       1  UNL1       -0.2045
     31 N          63.1783   81.9582   12.2519 N.ar    1  UNL1       -0.1478
     32 N          62.4643   80.6483   12.0949 N.ar    1  UNL1       -0.1447
     33 C          62.9221   79.7362   13.1943 C.ar    1  UNL1        0.1446
     34 C          63.9190   80.4823   14.0306 C.ar    1  UNL1        0.1446
     35 N          64.0774   81.8555   13.4482 N.ar    1  UNL1       -0.1447
@<TRIPOS>BOND
     1    21    22    1
     2    22     9    1
     3     9    10   ar
     4    10    11   ar
     5    11     1    1
     6     1     2    2
     7     1     3   am
     8     3     4    1
     9     4     5    1
    10     5     6    1
    11     6     7    1
    12     7     8    1
    13     8    23    1
    14    23    24    1
    15    24    25   ar
    16    25    26   ar
    17    26    31    1
    18    31    32   ar
    19    32    33   ar
    20    33    34   ar
    21    34    35   ar
    22    26    27   ar
    23    27    28   ar
    24    28    29   ar
    25    29    30    1
    26    11    12   ar
    27    12    16    1
    28    16    17   ar
    29    17    18   ar
    30    18    19   ar
    31    19    20   ar
    32    12    13   ar
    33    13    14   ar
    34    14    15    1
    35    14     9   ar
    36     8     3    1
    37    29    24   ar
    38    20    16   ar
    39    35    31   ar
@<TRIPOS>MOLECULE
*****
 35 39 0 0 0
SMALL
GASTEIGER

@<TRIPOS>ATOM
      1 C          62.3789   87.8627   11.1023 C.2     1  UNL1        0.2507
      2 O          63.4931   88.5008   10.3268 O.2     1  UNL1       -0.2698
      3 N          61.1415   88.6483   11.4215 N.am    1  UNL1       -0.2723
      4 C          60.0273   88.0101   12.1970 C.3     1  UNL1        0.1257
      5 C          58.7899   88.7957   12.5162 C.3     1  UNL1        0.1637
      6 O          58.6669   90.2193   12.0600 O.3     1  UNL1       -0.3502
      7 C          59.7811   90.8574   11.2846 C.3     1  UNL1        0.1622
      8 C          61.0184   90.0719   10.9653 C.3     1  UNL1        0.1097
      9 C          63.2473   84.7049   13.3436 C.ar    1  UNL1        0.1349
     10 C          63.1243   86.1285   12.8875 C.ar    1  UNL1        0.0427
     11 C          62.5019   86.4390   11.5585 C.ar    1  UNL1        0.0759
     12 C          62.0027   85.3260   10.6857 C.ar    1  UNL1        0.1071
     13 C          62.1257   83.9024   11.1418 C.ar    1  UNL1        0.0198
     14 C          62.7480   83.5918   12.4708 C.ar    1  UNL1        0.0137
     15 C          62.8711   82.1681   12.9270 C.3     1  UNL1        0.0343
     16 N          61.3803   85.6366    9.3566 N.ar    1  UNL1       -0.1477
     17 N          60.0879   86.3656    9.1371 N.ar    1  UNL1       -0.1447
     18 C          59.8499   86.4523    7.6586 C.ar    1  UNL1        0.1446
     19 C          60.9953   85.7769    6.9644 C.ar    1  UNL1        0.1446
     20 N          61.9411   85.2728    8.0138 N.ar    1  UNL1       -0.1447
     21 C          63.9281   85.4484   15.7381 C.3     1  UNL1        0.2525
     22 O          63.8697   84.3942   14.6726 O.3     1  UNL1       -0.4717
     23 C          62.1327   90.7100   10.1899 C.3     1  UNL1        0.0510
     24 C          63.2750   91.3584   10.9141 C.ar    1  UNL1        0.0086
     25 C          64.2016   92.2814   10.1796 C.ar    1  UNL1        0.0189
     26 C          65.3440   92.9298   10.9038 C.ar    1  UNL1        0.1027
     27 C          65.5598   92.6551   12.3627 C.ar    1  UNL1        0.0232
     28 C          64.6332   91.7322   13.0972 C.ar    1  UNL1        0.0309
     29 C          63.4908   91.0838   12.3729 C.ar    1  UNL1        0.1363
     30 F          62.5642   90.1608   13.1074 F       1  UNL1       -0.2045
     31 N          66.2706   93.8528   10.1693 N.ar    1  UNL1       -0.1478
     32 N          66.1936   95.3508   10.1540 N.ar    1  UNL1       -0.1447
     33 C          67.3123   95.8636    9.2964 C.ar    1  UNL1        0.1446
     34 C          68.0807   94.6826    8.7817 C.ar    1  UNL1        0.1446
     35 N          67.4369   93.4399    9.3212 N.ar    1  UNL1       -0.1447
@<TRIPOS>BOND
     1    21    22    1
     2    22     9    1
     3     9    10   ar
     4    10    11   ar
     5    11     1    1
     6     1     2    2
     7     1     3   am
     8     3     4    1
     9     4     5    1
    10     5     6    1
    11     6     7    1
    12     7     8    1
    13     8    23    1
    14    23    24    1
    15    24    25   ar
    16    25    26   ar
    17    26    31    1
    18    31    32   ar
    19    32    33   ar
    20    33    34   ar
    21    34    35   ar
    22    26    27   ar
    23    27    28   ar
    24    28    29   ar
    25    29    30    1
    26    11    12   ar
    27    12    16    1
    28    16    17   ar
    29    17    18   ar
    30    18    19   ar
    31    19    20   ar
    32    12    13   ar
    33    13    14   ar
    34    14    15    1
    35    14     9   ar
    36     8     3    1
    37    29    24   ar
    38    20    16   ar
    39    35    31   ar
@<TRIPOS>MOLECULE
*****
 35 39 0 0 0
SMALL
GASTEIGER

@<TRIPOS>ATOM
      1 C          63.0910   87.7942   12.5079 C.2     1  UNL1        0.2507
      2 O          63.0406   88.6995   11.3130 O.2     1  UNL1       -0.2698
      3 N          63.2021   88.3764   13.8858 N.am    1  UNL1       -0.2723
      4 C          63.2526   87.4710   15.0807 C.3     1  UNL1        0.1257
      5 C          63.3637   88.0533   16.4586 C.3     1  UNL1        0.1637
      6 O          63.4243   89.5409   16.6416 O.3     1  UNL1       -0.3502
      7 C          63.3738   90.4462   15.4467 C.3     1  UNL1        0.1622
      8 C          63.2627   89.8640   14.0688 C.3     1  UNL1        0.1097
      9 C          63.7704   83.9201   13.0367 C.ar    1  UNL1        0.1349
     10 C          63.8310   85.4076   13.2197 C.ar    1  UNL1        0.0427
     11 C          63.0304   86.3066   12.3249 C.ar    1  UNL1        0.0759
     12 C          62.1691   85.7180   11.2470 C.ar    1  UNL1        0.1071
     13 C          62.1085   84.2305   11.0640 C.ar    1  UNL1        0.0198
     14 C          62.9091   83.3315   11.9588 C.ar    1  UNL1        0.0137
     15 C          62.8485   81.8439   11.7759 C.3     1  UNL1        0.0343
     16 N          61.3685   86.6171   10.3521 N.ar    1  UNL1       -0.1477
     17 N          60.2427   87.5114   10.7799 N.ar    1  UNL1       -0.1447
     18 C          59.7315   88.2267    9.5646 C.ar    1  UNL1        0.1446
     19 C          60.5413   87.7744    8.3857 C.ar    1  UNL1        0.1446
     20 N          61.5530   86.7797    8.8725 N.ar    1  UNL1       -0.1447
     21 C          64.3117   83.0092   15.4089 C.3     1  UNL1        0.2525
     22 O          64.5711   83.0211   13.9316 O.3     1  UNL1       -0.4717
     23 C          63.2123   90.7694   12.8739 C.3     1  UNL1        0.0510
     24 C          64.4236   91.5626   12.4823 C.ar    1  UNL1        0.0086
     25 C          65.4748   91.8800   13.5041 C.ar    1  UNL1        0.0189
     26 C          66.6861   92.6733   13.1125 C.ar    1  UNL1        0.1027
     27 C          66.8462   93.1493   11.6990 C.ar    1  UNL1        0.0232
     28 C          65.7950   92.8319   10.6772 C.ar    1  UNL1        0.0309
     29 C          64.5836   92.0386   11.0688 C.ar    1  UNL1        0.1363
     30 F          63.5324   91.7212   10.0470 F       1  UNL1       -0.2045
     31 N          67.7374   92.9906   14.1343 N.ar    1  UNL1       -0.1478
     32 N          67.5711   93.8965   15.3184 N.ar    1  UNL1       -0.1447
     33 C          68.8705   93.9235   16.0673 C.ar    1  UNL1        0.1446
     34 C          69.8398   93.0344   15.3462 C.ar    1  UNL1        0.1446
     35 N          69.1395   92.4579   14.1516 N.ar    1  UNL1       -0.1447
@<TRIPOS>BOND
     1    21    22    1
     2    22     9    1
     3     9    10   ar
     4    10    11   ar
     5    11     1    1
     6     1     2    2
     7     1     3   am
     8     3     4    1
     9     4     5    1
    10     5     6    1
    11     6     7    1
    12     7     8    1
    13     8    23    1
    14    23    24    1
    15    24    25   ar
    16    25    26   ar
    17    26    31    1
    18    31    32   ar
    19    32    33   ar
    20    33    34   ar
    21    34    35   ar
    22    26    27   ar
    23    27    28   ar
    24    28    29   ar
    25    29    30    1
    26    11    12   ar
    27    12    16    1
    28    16    17   ar
    29    17    18   ar
    30    18    19   ar
    31    19    20   ar
    32    12    13   ar
    33    13    14   ar
    34    14    15    1
    35    14     9   ar
    36     8     3    1
    37    29    24   ar
    38    20    16   ar
    39    35    31   ar
