@<TRIPOS>MOLECULE
*****
 26 29 0 0 0
SMALL
GASTEIGER

@<TRIPOS>ATOM
      1 C          65.3121   92.5984   12.4660 C.ar    1  UNL1        0.1535
      2 C          66.0258   92.2790   13.7461 C.ar    1  UNL1        0.1332
      3 N          65.6236   91.0777   14.5493 N.ar    1  UNL1       -0.2393
      4 C          64.5078   90.1959   14.0724 C.ar    1  UNL1        0.1013
      5 C          63.7941   90.5154   12.7923 C.ar    1  UNL1        0.1004
      6 N          64.1963   91.7166   11.9891 N.ar    1  UNL1       -0.2274
      7 C          64.1056   88.9946   14.8757 C.ar    1  UNL1        0.0497
      8 C          64.4389   87.6174   14.3835 C.ar    1  UNL1        0.0245
      9 C          64.0367   86.4162   15.1867 C.ar    1  UNL1        0.0991
     10 N          63.3013   86.5920   16.4822 N.ar    1  UNL1       -0.2400
     11 C          62.9680   87.9692   16.9744 C.ar    1  UNL1        0.1285
     12 C          63.3701   89.1705   16.1711 C.ar    1  UNL1        0.1606
     13 F          63.0369   90.5477   16.6633 F       1  UNL1       -0.2025
     14 C          62.6783   89.6336   12.3154 C.ar    1  UNL1        0.0223
     15 C          62.9870   88.3073   11.6865 C.ar    1  UNL1        0.0222
     16 C          61.8712   87.4255   11.2096 C.ar    1  UNL1        0.0989
     17 N          60.4467   87.8700   11.3617 N.ar    1  UNL1       -0.2423
     18 C          60.1380   89.1963   11.9907 C.ar    1  UNL1        0.0989
     19 C          61.2538   90.0781   12.4675 C.ar    1  UNL1        0.0222
     20 O          67.1747   92.2891   10.1346 O.2     1  UNL1       -0.2747
     21 C          66.6456   93.6450   10.4970 C.2     1  UNL1        0.2267
     22 N          65.7143   93.7997   11.6627 N.am    1  UNL1       -0.2681
     23 H          65.3671   94.6897   11.9006 H       1  UNL1        0.1563
     24 C          67.0477   94.8464    9.6938 C.3     1  UNL1        0.0769
     25 C          67.2283   96.3309    9.5786 C.3     1  UNL1        0.0096
     26 C          67.5637   95.4424    8.4176 C.3     1  UNL1        0.0096
@<TRIPOS>BOND
     1    20    21    2
     2    21    22   am
     3    22     1    1
     4     1     2   ar
     5     2     3   ar
     6     3     4   ar
     7     4     7    1
     8     7     8   ar
     9     8     9   ar
    10     9    10   ar
    11    10    11   ar
    12    11    12   ar
    13    12    13    1
    14     4     5   ar
    15     5    14    1
    16    14    15   ar
    17    15    16   ar
    18    16    17   ar
    19    17    18   ar
    20    18    19   ar
    21     5     6   ar
    22    21    24    1
    23    24    25    1
    24    25    26    1
    25     6     1   ar
    26    26    24    1
    27    12     7   ar
    28    19    14   ar
    29    22    23    1
@<TRIPOS>MOLECULE
*****
 26 29 0 0 0
SMALL
GASTEIGER

@<TRIPOS>ATOM
      1 C          62.5257   90.8344   10.7368 C.ar    1  UNL1        0.1535
      2 C          62.4322   90.5273   12.2020 C.ar    1  UNL1        0.1332
      3 N          63.5096   90.9928   13.1361 N.ar    1  UNL1       -0.2393
      4 C          64.6805   91.7654   12.6049 C.ar    1  UNL1        0.1013
      5 C          64.7740   92.0725   11.1397 C.ar    1  UNL1        0.1004
      6 N          63.6966   91.6070   10.2056 N.ar    1  UNL1       -0.2274
      7 C          65.7579   92.2309   13.5390 C.ar    1  UNL1        0.0497
      8 C          66.2201   93.6574   13.4995 C.ar    1  UNL1        0.0245
      9 C          67.2974   94.1229   14.4335 C.ar    1  UNL1        0.0991
     10 N          67.9127   93.1619   15.4073 N.ar    1  UNL1       -0.2400
     11 C          67.4505   91.7354   15.4469 C.ar    1  UNL1        0.1285
     12 C          66.3731   91.2699   14.5127 C.ar    1  UNL1        0.1606
     13 F          65.9109   89.8434   14.5523 F       1  UNL1       -0.2025
     14 C          65.9449   92.8451   10.6085 C.ar    1  UNL1        0.0223
     15 C          67.2177   92.1323   10.2597 C.ar    1  UNL1        0.0222
     16 C          68.3886   92.9049    9.7286 C.ar    1  UNL1        0.0989
     17 N          68.2866   94.3902    9.5462 N.ar    1  UNL1       -0.2423
     18 C          67.0137   95.1030    9.8950 C.ar    1  UNL1        0.0989
     19 C          65.8429   94.3304   10.4262 C.ar    1  UNL1        0.0222
     20 O          62.2237   87.9113   10.1329 O.2     1  UNL1       -0.2747
     21 C          61.2973   88.9074    9.5007 C.2     1  UNL1        0.2267
     22 N          61.4483   90.3689    9.8027 N.am    1  UNL1       -0.2681
     23 H          60.8403   91.0226    9.3877 H       1  UNL1        0.1563
     24 C          60.2199   88.4419    8.5666 C.3     1  UNL1        0.0769
     25 C          59.3216   88.6926    7.3918 C.3     1  UNL1        0.0096
     26 C          59.2521   87.3850    8.1235 C.3     1  UNL1        0.0096
@<TRIPOS>BOND
     1    20    21    2
     2    21    22   am
     3    22     1    1
     4     1     2   ar
     5     2     3   ar
     6     3     4   ar
     7     4     7    1
     8     7     8   ar
     9     8     9   ar
    10     9    10   ar
    11    10    11   ar
    12    11    12   ar
    13    12    13    1
    14     4     5   ar
    15     5    14    1
    16    14    15   ar
    17    15    16   ar
    18    16    17   ar
    19    17    18   ar
    20    18    19   ar
    21     5     6   ar
    22    21    24    1
    23    24    25    1
    24    25    26    1
    25     6     1   ar
    26    26    24    1
    27    12     7   ar
    28    19    14   ar
    29    22    23    1
@<TRIPOS>MOLECULE
*****
 26 29 0 0 0
SMALL
GASTEIGER

@<TRIPOS>ATOM
      1 C          64.3209   89.7078   14.0823 C.ar    1  UNL1        0.1535
      2 C          63.6666   90.1605   12.8107 C.ar    1  UNL1        0.1332
      3 N          64.2424   91.3109   12.0394 N.ar    1  UNL1       -0.2393
      4 C          65.4724   92.0086   12.5397 C.ar    1  UNL1        0.1013
      5 C          66.1267   91.5559   13.8112 C.ar    1  UNL1        0.1004
      6 N          65.5510   90.4054   14.5825 N.ar    1  UNL1       -0.2274
      7 C          66.0482   93.1591   11.7683 C.ar    1  UNL1        0.0497
      8 C          65.7867   94.5671   12.2146 C.ar    1  UNL1        0.0245
      9 C          66.3624   95.7175   11.4433 C.ar    1  UNL1        0.0991
     10 N          67.1996   95.4600   10.2255 N.ar    1  UNL1       -0.2400
     11 C          67.4610   94.0521    9.7792 C.ar    1  UNL1        0.1285
     12 C          66.8853   92.9016   10.5506 C.ar    1  UNL1        0.1606
     13 F          67.1467   91.4936   10.1042 F       1  UNL1       -0.2025
     14 C          67.3567   92.2536   14.3114 C.ar    1  UNL1        0.0223
     15 C          67.2434   93.2990   15.3811 C.ar    1  UNL1        0.0222
     16 C          68.4734   93.9967   15.8813 C.ar    1  UNL1        0.0989
     17 N          69.8168   93.6490   15.3119 N.ar    1  UNL1       -0.2423
     18 C          69.9302   92.6036   14.2422 C.ar    1  UNL1        0.0989
     19 C          68.7001   91.9059   13.7420 C.ar    1  UNL1        0.0222
     20 O          63.4237   90.1020   16.9177 O.2     1  UNL1       -0.2747
     21 C          63.2966   88.7544   16.2714 C.2     1  UNL1        0.2267
     22 N          63.7452   88.5573   14.8537 N.am    1  UNL1       -0.2681
     23 H          63.6617   87.6728   14.4295 H       1  UNL1        0.1563
     24 C          62.7208   87.6039   17.0427 C.3     1  UNL1        0.0769
     25 C          61.7801   86.4389   17.1290 C.3     1  UNL1        0.0096
     26 C          62.6644   86.7764   18.2925 C.3     1  UNL1        0.0096
@<TRIPOS>BOND
     1    20    21    2
     2    21    22   am
     3    22     1    1
     4     1     2   ar
     5     2     3   ar
     6     3     4   ar
     7     4     7    1
     8     7     8   ar
     9     8     9   ar
    10     9    10   ar
    11    10    11   ar
    12    11    12   ar
    13    12    13    1
    14     4     5   ar
    15     5    14    1
    16    14    15   ar
    17    15    16   ar
    18    16    17   ar
    19    17    18   ar
    20    18    19   ar
    21     5     6   ar
    22    21    24    1
    23    24    25    1
    24    25    26    1
    25     6     1   ar
    26    26    24    1
    27    12     7   ar
    28    19    14   ar
    29    22    23    1
@<TRIPOS>MOLECULE
*****
 26 29 0 0 0
SMALL
GASTEIGER

@<TRIPOS>ATOM
      1 C          63.4505   90.0773   12.2433 C.ar    1  UNL1        0.1535
      2 C          63.8877   89.6758   13.6208 C.ar    1  UNL1        0.1332
      3 N          65.0463   90.3709   14.2722 N.ar    1  UNL1       -0.2393
      4 C          65.7677   91.4675   13.5461 C.ar    1  UNL1        0.1013
      5 C          65.3305   91.8689   12.1686 C.ar    1  UNL1        0.1004
      6 N          64.1719   91.1738   11.5172 N.ar    1  UNL1       -0.2274
      7 C          66.9264   92.1626   14.1976 C.ar    1  UNL1        0.0497
      8 C          66.6925   93.0815   15.3599 C.ar    1  UNL1        0.0245
      9 C          67.8510   93.7766   16.0114 C.ar    1  UNL1        0.0991
     10 N          69.2436   93.5528   15.5007 N.ar    1  UNL1       -0.2400
     11 C          69.4775   92.6339   14.3384 C.ar    1  UNL1        0.1285
     12 C          68.3188   91.9388   13.6869 C.ar    1  UNL1        0.1606
     13 F          68.5527   91.0198   12.5246 F       1  UNL1       -0.2025
     14 C          66.0518   92.9655   11.4425 C.ar    1  UNL1        0.0223
     15 C          65.8648   94.3930   11.8632 C.ar    1  UNL1        0.0222
     16 C          66.5862   95.4896   11.1371 C.ar    1  UNL1        0.0989
     17 N          67.4946   95.1586    9.9903 N.ar    1  UNL1       -0.2423
     18 C          67.6816   93.7310    9.5696 C.ar    1  UNL1        0.0989
     19 C          66.9602   92.6345   10.2957 C.ar    1  UNL1        0.0222
     20 O          62.6797   90.7648    9.4266 O.2     1  UNL1       -0.2747
     21 C          61.9065   89.7259   10.1835 C.2     1  UNL1        0.2267
     22 N          62.2918   89.3822   11.5918 N.am    1  UNL1       -0.2681
     23 H          61.7843   88.7003   12.0885 H       1  UNL1        0.1563
     24 C          60.7478   89.0308    9.5320 C.3     1  UNL1        0.0769
     25 C          59.7839   88.9050    8.3896 C.3     1  UNL1        0.0096
     26 C          59.7049   87.9527    9.5459 C.3     1  UNL1        0.0096
@<TRIPOS>BOND
     1    20    21    2
     2    21    22   am
     3    22     1    1
     4     1     2   ar
     5     2     3   ar
     6     3     4   ar
     7     4     7    1
     8     7     8   ar
     9     8     9   ar
    10     9    10   ar
    11    10    11   ar
    12    11    12   ar
    13    12    13    1
    14     4     5   ar
    15     5    14    1
    16    14    15   ar
    17    15    16   ar
    18    16    17   ar
    19    17    18   ar
    20    18    19   ar
    21     5     6   ar
    22    21    24    1
    23    24    25    1
    24    25    26    1
    25     6     1   ar
    26    26    24    1
    27    12     7   ar
    28    19    14   ar
    29    22    23    1
@<TRIPOS>MOLECULE
*****
 26 29 0 0 0
SMALL
GASTEIGER

@<TRIPOS>ATOM
      1 C          63.7697   85.2302   13.3156 C.ar    1  UNL1        0.1535
      2 C          64.5672   85.4856   14.5600 C.ar    1  UNL1        0.1332
      3 N          64.7651   86.8897   15.0490 N.ar    1  UNL1       -0.2393
      4 C          64.1655   88.0385   14.2936 C.ar    1  UNL1        0.1013
      5 C          63.3679   87.7831   13.0491 C.ar    1  UNL1        0.1004
      6 N          63.1700   86.3790   12.5601 N.ar    1  UNL1       -0.2274
      7 C          64.3634   89.4427   14.7826 C.ar    1  UNL1        0.0497
      8 C          65.4054   90.3172   14.1504 C.ar    1  UNL1        0.0245
      9 C          65.6033   91.7213   14.6394 C.ar    1  UNL1        0.0991
     10 N          64.7593   92.2511   15.7606 N.ar    1  UNL1       -0.2400
     11 C          63.7174   91.3766   16.3928 C.ar    1  UNL1        0.1285
     12 C          63.5194   89.9724   15.9038 C.ar    1  UNL1        0.1606
     13 F          62.4775   89.0979   16.5360 F       1  UNL1       -0.2025
     14 C          62.7683   88.9319   12.2937 C.ar    1  UNL1        0.0223
     15 C          63.6573   89.8998   11.5706 C.ar    1  UNL1        0.0222
     16 C          63.0577   91.0486   10.8151 C.ar    1  UNL1        0.0989
     17 N          61.5690   91.2295   10.7828 N.ar    1  UNL1       -0.2423
     18 C          60.6800   90.2617   11.5059 C.ar    1  UNL1        0.0989
     19 C          61.2796   89.1129   12.2613 C.ar    1  UNL1        0.0222
     20 O          62.2353   83.2636   14.9824 O.2     1  UNL1       -0.2747
     21 C          62.8045   82.8427   13.6599 C.2     1  UNL1        0.2267
     22 N          63.5717   83.8260   12.8266 N.am    1  UNL1       -0.2681
     23 H          63.9453   83.5498   11.9586 H       1  UNL1        0.1563
     24 C          62.6066   81.4385   13.1709 C.3     1  UNL1        0.0769
     25 C          62.7571   80.4044   12.0949 C.3     1  UNL1        0.0096
     26 C          62.1133   80.0406   13.3999 C.3     1  UNL1        0.0096
@<TRIPOS>BOND
     1    20    21    2
     2    21    22   am
     3    22     1    1
     4     1     2   ar
     5     2     3   ar
     6     3     4   ar
     7     4     7    1
     8     7     8   ar
     9     8     9   ar
    10     9    10   ar
    11    10    11   ar
    12    11    12   ar
    13    12    13    1
    14     4     5   ar
    15     5    14    1
    16    14    15   ar
    17    15    16   ar
    18    16    17   ar
    19    17    18   ar
    20    18    19   ar
    21     5     6   ar
    22    21    24    1
    23    24    25    1
    24    25    26    1
    25     6     1   ar
    26    26    24    1
    27    12     7   ar
    28    19    14   ar
    29    22    23    1
@<TRIPOS>MOLECULE
*****
 26 29 0 0 0
SMALL
GASTEIGER

@<TRIPOS>ATOM
      1 C          62.8674   90.7563   10.5056 C.ar    1  UNL1        0.1535
      2 C          63.8381   91.8928   10.3791 C.ar    1  UNL1        0.1332
      3 N          64.7550   92.2262   11.5184 N.ar    1  UNL1       -0.2393
      4 C          64.7011   91.4232   12.7842 C.ar    1  UNL1        0.1013
      5 C          63.7304   90.2867   12.9107 C.ar    1  UNL1        0.1004
      6 N          62.8135   89.9532   11.7714 N.ar    1  UNL1       -0.2274
      7 C          65.6181   91.7567   13.9236 C.ar    1  UNL1        0.0497
      8 C          65.0498   92.0830   15.2729 C.ar    1  UNL1        0.0245
      9 C          65.9666   92.4165   16.4122 C.ar    1  UNL1        0.0991
     10 N          67.4519   92.4237   16.2023 N.ar    1  UNL1       -0.2400
     11 C          68.0202   92.0973   14.8530 C.ar    1  UNL1        0.1285
     12 C          67.1033   91.7638   13.7136 C.ar    1  UNL1        0.1606
     13 F          67.6716   91.4375   12.3644 F       1  UNL1       -0.2025
     14 C          63.6766   89.4837   14.1765 C.ar    1  UNL1        0.0223
     15 C          64.2735   88.1082   14.2181 C.ar    1  UNL1        0.0222
     16 C          64.2196   87.3052   15.4839 C.ar    1  UNL1        0.0989
     17 N          63.5688   87.8776   16.7081 N.ar    1  UNL1       -0.2423
     18 C          62.9719   89.2530   16.6665 C.ar    1  UNL1        0.0989
     19 C          63.0258   90.0561   15.4007 C.ar    1  UNL1        0.0222
     20 O          61.0265   88.3958   10.7031 O.2     1  UNL1       -0.2747
     21 C          61.0300   89.2425    9.4650 C.2     1  UNL1        0.2267
     22 N          61.9504   90.4228    9.3662 N.am    1  UNL1       -0.2681
     23 H          61.9528   90.9785    8.5536 H       1  UNL1        0.1563
     24 C          60.1131   88.9090    8.3257 C.3     1  UNL1        0.0769
     25 C          59.4476   89.2951    7.0380 C.3     1  UNL1        0.0096
     26 C          59.1904   87.9454    7.6399 C.3     1  UNL1        0.0096
@<TRIPOS>BOND
     1    20    21    2
     2    21    22   am
     3    22     1    1
     4     1     2   ar
     5     2     3   ar
     6     3     4   ar
     7     4     7    1
     8     7     8   ar
     9     8     9   ar
    10     9    10   ar
    11    10    11   ar
    12    11    12   ar
    13    12    13    1
    14     4     5   ar
    15     5    14    1
    16    14    15   ar
    17    15    16   ar
    18    16    17   ar
    19    17    18   ar
    20    18    19   ar
    21     5     6   ar
    22    21    24    1
    23    24    25    1
    24    25    26    1
    25     6     1   ar
    26    26    24    1
    27    12     7   ar
    28    19    14   ar
    29    22    23    1
@<TRIPOS>MOLECULE
*****
 26 29 0 0 0
SMALL
GASTEIGER

@<TRIPOS>ATOM
      1 C          62.8509   84.6846   12.5615 C.ar    1  UNL1        0.1535
      2 C          63.8944   85.0406   13.5786 C.ar    1  UNL1        0.1332
      3 N          64.1951   86.4805   13.8720 N.ar    1  UNL1       -0.2393
      4 C          63.4525   87.5644   13.1484 C.ar    1  UNL1        0.1013
      5 C          62.4090   87.2084   12.1314 C.ar    1  UNL1        0.1004
      6 N          62.1082   85.7685   11.8379 N.ar    1  UNL1       -0.2274
      7 C          63.7533   89.0044   13.4420 C.ar    1  UNL1        0.0497
      8 C          63.9419   89.9760   12.3148 C.ar    1  UNL1        0.0245
      9 C          64.2427   91.4159   12.6083 C.ar    1  UNL1        0.0991
     10 N          64.3549   91.8842   14.0289 N.ar    1  UNL1       -0.2400
     11 C          64.1662   90.9126   15.1560 C.ar    1  UNL1        0.1285
     12 C          63.8654   89.4727   14.8625 C.ar    1  UNL1        0.1606
     13 F          63.6768   88.5011   15.9897 F       1  UNL1       -0.2025
     14 C          61.6663   88.2923   11.4078 C.ar    1  UNL1        0.0223
     15 C          61.9886   88.5941    9.9743 C.ar    1  UNL1        0.0222
     16 C          61.2460   89.6780    9.2507 C.ar    1  UNL1        0.0989
     17 N          60.1810   90.4601    9.9606 N.ar    1  UNL1       -0.2423
     18 C          59.8587   90.1583   11.3941 C.ar    1  UNL1        0.0989
     19 C          60.6013   89.0744   12.1177 C.ar    1  UNL1        0.0222
     20 O          64.6012   83.1404   10.6768 O.2     1  UNL1       -0.2747
     21 C          63.4253   82.4726   11.3257 C.2     1  UNL1        0.2267
     22 N          62.5501   83.2446   12.2680 N.am    1  UNL1       -0.2681
     23 H          61.7783   82.8063   12.6939 H       1  UNL1        0.1563
     24 C          63.1244   81.0326   11.0322 C.3     1  UNL1        0.0769
     25 C          62.7183   79.6680   11.5043 C.3     1  UNL1        0.0096
     26 C          63.0095   79.9032   10.0517 C.3     1  UNL1        0.0096
@<TRIPOS>BOND
     1    20    21    2
     2    21    22   am
     3    22     1    1
     4     1     2   ar
     5     2     3   ar
     6     3     4   ar
     7     4     7    1
     8     7     8   ar
     9     8     9   ar
    10     9    10   ar
    11    10    11   ar
    12    11    12   ar
    13    12    13    1
    14     4     5   ar
    15     5    14    1
    16    14    15   ar
    17    15    16   ar
    18    16    17   ar
    19    17    18   ar
    20    18    19   ar
    21     5     6   ar
    22    21    24    1
    23    24    25    1
    24    25    26    1
    25     6     1   ar
    26    26    24    1
    27    12     7   ar
    28    19    14   ar
    29    22    23    1
