@<TRIPOS>MOLECULE
*****
 34 39 0 0 0
SMALL
GASTEIGER

@<TRIPOS>ATOM
      1 C          59.1632   90.3618    5.8216 C.2     1  UNL1        0.1040
      2 N          57.7529   90.8709    5.7767 N.2     1  UNL1       -0.1483
      3 N          57.6788   91.9390    4.7262 N.2     1  UNL1       -0.1520
      4 C          59.0434   92.0900    4.1218 C.2     1  UNL1        0.0860
      5 C          59.5690   92.9893    3.0425 C.3     1  UNL1        0.0697
      6 C          61.0121   92.9137    2.6401 C.2     1  UNL1       -0.0378
      7 C          61.9294   91.9390    3.3171 C.2     1  UNL1       -0.0080
      8 C          61.4038   91.0397    4.3965 C.2     1  UNL1        0.0022
      9 C          59.9607   91.1153    4.7988 C.2     1  UNL1        0.0350
     10 C          61.5378   93.8130    1.5607 C.3     1  UNL1        0.0315
     11 C          62.4638   94.9066    1.1176 C.3     1  UNL1        0.0179
     12 C          61.5224   94.2769    0.1343 C.3     1  UNL1        0.0930
     13 C          60.4484   93.3357   -0.3249 C.2     1  UNL1        0.2326
     14 O          59.7384   92.3252    0.5264 O.2     1  UNL1       -0.2742
     15 N          60.2091   93.5826   -1.7850 N.am    1  UNL1       -0.2569
     16 C          59.2178   92.8622   -2.6501 C.3     1  UNL1        0.1200
     17 C          61.1352   94.6763   -2.2281 C.ar    1  UNL1        0.0503
     18 C          61.3442   95.3368   -3.5585 C.ar    1  UNL1        0.0146
     19 C          62.3649   96.4265   -3.7026 C.ar    1  UNL1        0.0013
     20 C          63.1765   96.8556   -2.5164 C.ar    1  UNL1       -0.0002
     21 C          62.9675   96.1950   -1.1860 C.ar    1  UNL1       -0.0026
     22 C          61.9468   95.1053   -1.0419 C.ar    1  UNL1       -0.0006
     23 C          60.1662   89.6382    8.1064 C.2     1  UNL1        0.0016
     24 C          59.6844   89.2877    6.7299 C.2     1  UNL1        0.0209
     25 C          61.7297   86.4161   10.8310 C.ar    1  UNL1       -0.0061
     26 C          62.1337   87.8441   11.0492 C.ar    1  UNL1       -0.0029
     27 C          61.6126   88.9181   10.1411 C.ar    1  UNL1       -0.0003
     28 C          60.6873   88.5641    9.0146 C.ar    1  UNL1        0.0000
     29 C          60.2833   87.1361    8.7964 C.ar    1  UNL1       -0.0003
     30 C          60.8046   86.0621    9.7047 C.ar    1  UNL1       -0.0029
     31 C          62.2509   85.3420   11.7393 C.3     1  UNL1        0.0992
     32 C          62.6936   82.7863   11.8872 C.3     1  UNL1        0.0899
     33 N          62.8392   84.0899   11.1597 N.3     1  UNL1       -0.2665
     34 C          63.5732   84.1414    9.8525 C.3     1  UNL1        0.0899
@<TRIPOS>BOND
     1    32    33    1
     2    33    34    1
     3    33    31    1
     4    31    25    1
     5    25    26   ar
     6    26    27   ar
     7    27    28   ar
     8    28    23    1
     9    23    24    2
    10    24     1    1
    11     1     2    2
    12     2     3    1
    13     3     4    2
    14     4     5    1
    15     5     6    1
    16    10     6    1
    17    10    11    1
    18    12    11    1
    19    12    13    1
    20    13    14    2
    21    13    15   am
    22    15    16    1
    23    15    17    1
    24    17    18   ar
    25    18    19   ar
    26    19    20   ar
    27    20    21   ar
    28    21    22   ar
    29     6     7    2
    30     7     8    1
    31     8     9    2
    32    28    29   ar
    33    29    30   ar
    34    30    25   ar
    35     9     1    1
    36     9     4    1
    37    12    10    1
    38    22    17   ar
    39    22    12    1
@<TRIPOS>MOLECULE
*****
 34 39 0 0 0
SMALL
GASTEIGER

@<TRIPOS>ATOM
      1 C          60.1997   91.4323    4.5665 C.2     1  UNL1        0.1040
      2 N          58.8343   91.9961    4.3063 N.2     1  UNL1       -0.1483
      3 N          58.9120   92.8495    3.0752 N.2     1  UNL1       -0.1520
      4 C          60.3256   92.8131    2.5745 C.2     1  UNL1        0.0860
      5 C          60.9909   93.4643    1.3984 C.3     1  UNL1        0.0697
      6 C          62.4520   93.2397    1.1440 C.2     1  UNL1       -0.0378
      7 C          63.2477   92.3638    2.0657 C.2     1  UNL1       -0.0080
      8 C          62.5825   91.7125    3.2418 C.2     1  UNL1        0.0022
      9 C          61.1214   91.9372    3.4962 C.2     1  UNL1        0.0350
     10 C          63.1173   93.8909   -0.0321 C.3     1  UNL1        0.0315
     11 C          64.2942   94.6053   -0.6275 C.3     1  UNL1        0.0179
     12 C          63.0928   94.3045   -1.4738 C.3     1  UNL1        0.0930
     13 C          61.7246   93.7649   -1.7684 C.2     1  UNL1        0.2326
     14 O          60.8240   93.0654   -0.7940 O.2     1  UNL1       -0.2742
     15 N          61.4152   94.0477   -3.2087 N.am    1  UNL1       -0.2569
     16 C          60.1507   93.6805   -3.9273 C.3     1  UNL1        0.1200
     17 C          62.5921   94.7620   -3.8041 C.ar    1  UNL1        0.0503
     18 C          62.8536   95.2884   -5.1841 C.ar    1  UNL1        0.0146
     19 C          64.1519   95.9736   -5.4919 C.ar    1  UNL1        0.0013
     20 C          65.1888   96.1324   -4.4196 C.ar    1  UNL1       -0.0002
     21 C          64.9273   95.6060   -3.0396 C.ar    1  UNL1       -0.0026
     22 C          63.6289   94.9208   -2.7319 C.ar    1  UNL1       -0.0006
     23 C          59.5170   89.7485    6.4236 C.2     1  UNL1        0.0016
     24 C          60.5772   90.5231    5.6984 C.2     1  UNL1        0.0209
     25 C          60.6495   87.0212    9.8191 C.ar    1  UNL1       -0.0061
     26 C          60.7845   88.5071    9.9736 C.ar    1  UNL1       -0.0029
     27 C          60.4070   89.4162    8.8418 C.ar    1  UNL1       -0.0003
     28 C          59.8945   88.8394    7.5554 C.ar    1  UNL1        0.0000
     29 C          59.7596   87.3535    7.4009 C.ar    1  UNL1       -0.0003
     30 C          60.1371   86.4443    8.5328 C.ar    1  UNL1       -0.0029
     31 C          61.0270   86.1120   10.9510 C.3     1  UNL1        0.0992
     32 C          62.8213   87.7798   11.8162 C.3     1  UNL1        0.0899
     33 N          62.2621   86.3893   11.7557 N.3     1  UNL1       -0.2665
     34 C          62.9380   85.2760   12.4999 C.3     1  UNL1        0.0899
@<TRIPOS>BOND
     1    32    33    1
     2    33    34    1
     3    33    31    1
     4    31    25    1
     5    25    26   ar
     6    26    27   ar
     7    27    28   ar
     8    28    23    1
     9    23    24    2
    10    24     1    1
    11     1     2    2
    12     2     3    1
    13     3     4    2
    14     4     5    1
    15     5     6    1
    16    10     6    1
    17    10    11    1
    18    12    11    1
    19    12    13    1
    20    13    14    2
    21    13    15   am
    22    15    16    1
    23    15    17    1
    24    17    18   ar
    25    18    19   ar
    26    19    20   ar
    27    20    21   ar
    28    21    22   ar
    29     6     7    2
    30     7     8    1
    31     8     9    2
    32    28    29   ar
    33    29    30   ar
    34    30    25   ar
    35     9     1    1
    36     9     4    1
    37    12    10    1
    38    22    17   ar
    39    22    12    1
@<TRIPOS>MOLECULE
*****
 34 39 0 0 0
SMALL
GASTEIGER

@<TRIPOS>ATOM
      1 C          59.2728   90.6288    5.8861 C.2     1  UNL1        0.1040
      2 N          57.8055   90.9335    5.8199 N.2     1  UNL1       -0.1483
      3 N          57.5611   91.7744    4.6020 N.2     1  UNL1       -0.1520
      4 C          58.8774   91.9894    3.9155 C.2     1  UNL1        0.0860
      5 C          59.2494   92.7383    2.6703 C.3     1  UNL1        0.0697
      6 C          60.6792   92.7793    2.2186 C.2     1  UNL1       -0.0378
      7 C          61.7370   92.0713    3.0122 C.2     1  UNL1       -0.0080
      8 C          61.3650   91.3223    4.2575 C.2     1  UNL1        0.0022
      9 C          59.9352   91.2814    4.7091 C.2     1  UNL1        0.0350
     10 C          61.0512   93.5283    0.9733 C.3     1  UNL1        0.0315
     11 C          60.6540   94.1815   -0.3172 C.3     1  UNL1        0.0179
     12 C          62.0927   94.1724    0.1071 C.3     1  UNL1        0.0930
     13 C          63.2557   93.8594    1.0012 C.2     1  UNL1        0.2326
     14 O          63.1910   93.1249    2.3075 O.2     1  UNL1       -0.2742
     15 N          64.4948   94.4100    0.3597 N.am    1  UNL1       -0.2569
     16 C          65.8868   94.3226    0.9118 C.3     1  UNL1        0.1200
     17 C          64.0976   95.0631   -0.9309 C.ar    1  UNL1        0.0503
     18 C          64.8960   95.7726   -1.9841 C.ar    1  UNL1        0.0146
     19 C          64.2097   96.3353   -3.1933 C.ar    1  UNL1        0.0013
     20 C          62.7251   96.1885   -3.3495 C.ar    1  UNL1       -0.0002
     21 C          61.9268   95.4790   -2.2963 C.ar    1  UNL1       -0.0026
     22 C          62.6130   94.9163   -1.0870 C.ar    1  UNL1       -0.0006
     23 C          59.3611   88.5129    7.3911 C.2     1  UNL1        0.0016
     24 C          59.9573   89.8145    6.9436 C.2     1  UNL1        0.0209
     25 C          61.4149   86.0702   10.5637 C.ar    1  UNL1       -0.0061
     26 C          60.8411   87.4133   10.9055 C.ar    1  UNL1       -0.0029
     27 C          60.1565   88.2275    9.8480 C.ar    1  UNL1       -0.0003
     28 C          60.0457   87.6987    8.4486 C.ar    1  UNL1        0.0000
     29 C          60.6195   86.3555    8.1068 C.ar    1  UNL1       -0.0003
     30 C          61.3041   85.5413    9.1644 C.ar    1  UNL1       -0.0029
     31 C          62.0995   85.2559   11.6213 C.3     1  UNL1        0.0992
     32 C          63.7431   83.9420   10.0975 C.3     1  UNL1        0.0899
     33 N          62.7877   83.9749   11.2533 N.3     1  UNL1       -0.2665
     34 C          62.5204   82.7268   12.0413 C.3     1  UNL1        0.0899
@<TRIPOS>BOND
     1    32    33    1
     2    33    34    1
     3    33    31    1
     4    31    25    1
     5    25    26   ar
     6    26    27   ar
     7    27    28   ar
     8    28    23    1
     9    23    24    2
    10    24     1    1
    11     1     2    2
    12     2     3    1
    13     3     4    2
    14     4     5    1
    15     5     6    1
    16    10     6    1
    17    10    11    1
    18    12    11    1
    19    12    13    1
    20    13    14    2
    21    13    15   am
    22    15    16    1
    23    15    17    1
    24    17    18   ar
    25    18    19   ar
    26    19    20   ar
    27    20    21   ar
    28    21    22   ar
    29     6     7    2
    30     7     8    1
    31     8     9    2
    32    28    29   ar
    33    29    30   ar
    34    30    25   ar
    35     9     1    1
    36     9     4    1
    37    12    10    1
    38    22    17   ar
    39    22    12    1
@<TRIPOS>MOLECULE
*****
 34 39 0 0 0
SMALL
GASTEIGER

@<TRIPOS>ATOM
      1 C          63.8941   90.0262   15.7261 C.2     1  UNL1        0.1040
      2 N          63.4455   90.0005   17.1573 N.2     1  UNL1       -0.1483
      3 N          63.0605   88.5912   17.4971 N.2     1  UNL1       -0.1520
      4 C          63.2713   87.7458   16.2760 C.2     1  UNL1        0.0860
      5 C          63.0606   86.2830   16.0194 C.3     1  UNL1        0.0697
      6 C          63.3651   85.7072   14.6683 C.2     1  UNL1       -0.0378
      7 C          63.8803   86.5941   13.5738 C.2     1  UNL1       -0.0080
      8 C          64.0910   88.0569   13.8304 C.2     1  UNL1        0.0022
      9 C          63.7865   88.6327   15.1815 C.2     1  UNL1        0.0350
     10 C          63.1545   84.2443   14.4116 C.3     1  UNL1        0.0315
     11 C          62.8626   82.8647   14.9226 C.3     1  UNL1        0.0179
     12 C          63.0814   83.0904   13.4560 C.3     1  UNL1        0.0930
     13 C          63.3670   83.8917   12.2205 C.2     1  UNL1        0.2326
     14 O          63.6186   85.3695   12.1666 O.2     1  UNL1       -0.2742
     15 N          63.3569   82.9557   11.0485 N.am    1  UNL1       -0.2569
     16 C          63.5966   83.3332    9.6166 C.3     1  UNL1        0.1200
     17 C          63.0651   81.5760   11.5595 C.ar    1  UNL1        0.0503
     18 C          62.9323   80.2546   10.8622 C.ar    1  UNL1        0.0146
     19 C          62.6294   79.0165   11.6529 C.ar    1  UNL1        0.0013
     20 C          62.4591   79.0997   13.1408 C.ar    1  UNL1       -0.0002
     21 C          62.5918   80.4211   13.8382 C.ar    1  UNL1       -0.0026
     22 C          62.8948   81.6592   13.0475 C.ar    1  UNL1       -0.0006
     23 C          64.8723   91.0898   13.5669 C.2     1  UNL1        0.0016
     24 C          64.3673   91.2335   14.9720 C.2     1  UNL1        0.0209
     25 C          66.2919   94.7116   11.3048 C.ar    1  UNL1       -0.0061
     26 C          65.5339   93.6314   10.5916 C.ar    1  UNL1       -0.0029
     27 C          65.0607   92.4241   11.3456 C.ar    1  UNL1       -0.0003
     28 C          65.3455   92.2970   12.8129 C.ar    1  UNL1        0.0000
     29 C          66.1035   93.3772   13.5261 C.ar    1  UNL1       -0.0003
     30 C          66.5767   94.5845   12.7720 C.ar    1  UNL1       -0.0029
     31 C          66.7651   95.9189   10.5507 C.3     1  UNL1        0.0992
     32 C          68.1452   94.5027    8.8657 C.3     1  UNL1        0.0899
     33 N          67.3972   95.7592    9.1998 N.3     1  UNL1       -0.2665
     34 C          67.2813   96.8560    8.1831 C.3     1  UNL1        0.0899
@<TRIPOS>BOND
     1    32    33    1
     2    33    34    1
     3    33    31    1
     4    31    25    1
     5    25    26   ar
     6    26    27   ar
     7    27    28   ar
     8    28    23    1
     9    23    24    2
    10    24     1    1
    11     1     2    2
    12     2     3    1
    13     3     4    2
    14     4     5    1
    15     5     6    1
    16    10     6    1
    17    10    11    1
    18    12    11    1
    19    12    13    1
    20    13    14    2
    21    13    15   am
    22    15    16    1
    23    15    17    1
    24    17    18   ar
    25    18    19   ar
    26    19    20   ar
    27    20    21   ar
    28    21    22   ar
    29     6     7    2
    30     7     8    1
    31     8     9    2
    32    28    29   ar
    33    29    30   ar
    34    30    25   ar
    35     9     1    1
    36     9     4    1
    37    12    10    1
    38    22    17   ar
    39    22    12    1
@<TRIPOS>MOLECULE
*****
 34 39 0 0 0
SMALL
GASTEIGER

@<TRIPOS>ATOM
      1 C          60.4102   94.9820    1.9437 C.2     1  UNL1        0.1040
      2 N          59.4478   96.0917    1.6394 N.2     1  UNL1       -0.1483
      3 N          59.9649   96.8397    0.4464 N.2     1  UNL1       -0.1520
      4 C          61.2469   96.1923    0.0134 C.2     1  UNL1        0.0860
      5 C          62.1992   96.4999   -1.1039 C.3     1  UNL1        0.0697
      6 C          63.4267   95.6594   -1.2959 C.2     1  UNL1       -0.0378
      7 C          63.7019   94.5114   -0.3705 C.2     1  UNL1       -0.0080
      8 C          62.7496   94.2037    0.7468 C.2     1  UNL1        0.0022
      9 C          61.5221   95.0442    0.9388 C.2     1  UNL1        0.0350
     10 C          64.3791   95.9670   -2.4133 C.3     1  UNL1        0.0315
     11 C          65.4632   96.8234   -2.9973 C.3     1  UNL1        0.0179
     12 C          64.9445   95.6434   -3.7644 C.3     1  UNL1        0.0930
     13 C          64.0832   94.4402   -4.0106 C.2     1  UNL1        0.2326
     14 O          63.0438   93.8940   -3.0772 O.2     1  UNL1       -0.2742
     15 N          64.4438   93.8792   -5.3542 N.am    1  UNL1       -0.2569
     16 C          63.8284   92.6735   -6.0003 C.3     1  UNL1        0.1200
     17 C          65.5280   94.7356   -5.9383 C.ar    1  UNL1        0.0503
     18 C          66.2734   94.6635   -7.2380 C.ar    1  UNL1        0.0146
     19 C          67.3282   95.6817   -7.5551 C.ar    1  UNL1        0.0013
     20 C          67.6376   96.7720   -6.5725 C.ar    1  UNL1       -0.0002
     21 C          66.8922   96.8441   -5.2728 C.ar    1  UNL1       -0.0026
     22 C          65.8374   95.8259   -4.9558 C.ar    1  UNL1       -0.0006
     23 C          59.3220   92.8402    2.9329 C.2     1  UNL1        0.0016
     24 C          60.2830   93.9852    3.0574 C.2     1  UNL1        0.0209
     25 C          58.9405   89.8499    6.2740 C.ar    1  UNL1       -0.0061
     26 C          60.2874   90.1491    5.6854 C.ar    1  UNL1       -0.0029
     27 C          60.4146   91.1459    4.5717 C.ar    1  UNL1       -0.0003
     28 C          59.1948   91.8435    4.0466 C.ar    1  UNL1        0.0000
     29 C          57.8480   91.5443    4.6352 C.ar    1  UNL1       -0.0003
     30 C          57.7208   90.5475    5.7489 C.ar    1  UNL1       -0.0029
     31 C          58.8133   88.8531    7.3877 C.3     1  UNL1        0.0992
     32 C          60.3593   89.6016    9.3369 C.3     1  UNL1        0.0899
     33 N          59.9777   88.5910    8.2962 N.3     1  UNL1       -0.2665
     34 C          60.7606   87.3184    8.1639 C.3     1  UNL1        0.0899
@<TRIPOS>BOND
     1    32    33    1
     2    33    34    1
     3    33    31    1
     4    31    25    1
     5    25    26   ar
     6    26    27   ar
     7    27    28   ar
     8    28    23    1
     9    23    24    2
    10    24     1    1
    11     1     2    2
    12     2     3    1
    13     3     4    2
    14     4     5    1
    15     5     6    1
    16    10     6    1
    17    10    11    1
    18    12    11    1
    19    12    13    1
    20    13    14    2
    21    13    15   am
    22    15    16    1
    23    15    17    1
    24    17    18   ar
    25    18    19   ar
    26    19    20   ar
    27    20    21   ar
    28    21    22   ar
    29     6     7    2
    30     7     8    1
    31     8     9    2
    32    28    29   ar
    33    29    30   ar
    34    30    25   ar
    35     9     1    1
    36     9     4    1
    37    12    10    1
    38    22    17   ar
    39    22    12    1
