@<TRIPOS>MOLECULE
*****
 39 42 0 0 0
SMALL
GASTEIGER

@<TRIPOS>ATOM
      1 C          64.8394   92.7457   10.9056 C.ar    1  UNL1        0.1132
      2 N          63.9055   91.9827   10.0137 N.ar    1  UNL1       -0.1462
      3 N          63.2154   90.9431   10.8461 N.ar    1  UNL1       -0.1301
      4 C          63.7228   91.0635   12.2526 C.ar    1  UNL1        0.1700
      5 N          63.4006   90.3027   13.5045 N.ar    1  UNL1       -0.3105
      6 C          64.0821   90.6560   14.7932 C.ar    1  UNL1        0.1982
      7 N          65.0858   91.7701   14.8300 N.ar    1  UNL1       -0.1805
      8 C          65.4080   92.5309   13.5780 C.ar    1  UNL1        0.2317
      9 C          64.7265   92.1776   12.2893 C.ar    1  UNL1        0.1083
     10 H          62.7418   89.5715   13.4803 H       1  UNL1        0.1701
     11 C          67.0496   93.5923    9.8339 C.ar    1  UNL1        0.1402
     12 C          67.9402   94.7245    9.4156 C.ar    1  UNL1        0.0370
     13 C          67.5110   96.1425    9.6508 C.ar    1  UNL1        0.0031
     14 C          66.1914   96.4281   10.3042 C.ar    1  UNL1        0.0003
     15 C          65.3008   95.2959   10.7225 C.ar    1  UNL1        0.0046
     16 C          65.7299   93.8780   10.4874 C.ar    1  UNL1        0.0536
     17 C          68.7484   91.8888    8.8529 C.3     1  UNL1        0.2525
     18 O          67.4787   92.1744    9.5988 O.3     1  UNL1       -0.4714
     19 N          63.7598   89.8952   16.0451 N.pl3   1  UNL1       -0.3060
     20 H          63.6054   90.3785   16.8889 H       1  UNL1        0.1495
     21 C          63.6728   88.3982   16.0115 C.3     1  UNL1        0.0718
     22 C          62.9412   87.6648   17.0963 C.3     1  UNL1        0.0210
     23 C          62.8542   86.1677   17.0627 C.3     1  UNL1        0.0191
     24 C          63.4989   85.4039   15.9442 C.3     1  UNL1        0.0752
     25 C          64.2305   86.1373   14.8593 C.3     1  UNL1        0.0191
     26 C          64.3175   87.6343   14.8930 C.3     1  UNL1        0.0210
     27 N          63.4119   83.9068   15.9105 N.3     1  UNL1       -0.1847
     28 H          62.7449   83.6343   16.6324 H       1  UNL1        0.1484
     29 S          62.9957   83.2079   14.6503 S.O2    1  UNL1        0.0410
     30 O          64.2382   82.3694   14.7048 O.2     1  UNL1       -0.1575
     31 O          61.7531   84.0464   14.5957 O.2     1  UNL1       -0.1575
     32 C          62.5794   82.5090   13.3900 C.3     1  UNL1        0.1776
     33 C          63.6079   81.8328   12.5326 C.3     1  UNL1        0.1302
     34 C          63.9417   82.3908   11.1808 C.3     1  UNL1        0.3995
     35 F          64.2754   82.9487    9.8291 F       1  UNL1       -0.1700
     36 F          63.1508   81.2934   10.5326 F       1  UNL1       -0.1700
     37 F          64.7325   83.4882   11.8291 F       1  UNL1       -0.1700
     38 O          66.4117   93.6450   13.6148 O.3     1  UNL1       -0.4560
     39 C          67.4043   93.7235   14.7368 C.3     1  UNL1        0.2542
@<TRIPOS>BOND
     1    17    18    1
     2    18    11    1
     3    11    12   ar
     4    12    13   ar
     5    13    14   ar
     6    14    15   ar
     7    15    16   ar
     8    16     1    1
     9     1     2   ar
    10     2     3   ar
    11     3     4   ar
    12     4     5   ar
    13     5     6   ar
    14     6    19    1
    15    21    19    1
    16    21    22    1
    17    22    23    1
    18    23    24    1
    19    24    27    1
    20    27    29    1
    21    29    30    2
    22    29    31    2
    23    29    32    1
    24    32    33    1
    25    33    34    1
    26    34    35    1
    27    34    36    1
    28    34    37    1
    29    24    25    1
    30    25    26    1
    31     6     7   ar
    32     7     8   ar
    33     8    38    1
    34    38    39    1
    35     8     9   ar
    36    16    11   ar
    37     9     1   ar
    38     9     4    1
    39    26    21    1
    40     5    10    1
    41    19    20    1
    42    27    28    1
@<TRIPOS>MOLECULE
*****
 39 42 0 0 0
SMALL
GASTEIGER

@<TRIPOS>ATOM
      1 C          66.5540   93.6524   12.9525 C.ar    1  UNL1        0.1132
      2 N          67.3404   94.1919   14.1103 N.ar    1  UNL1       -0.1462
      3 N          66.8769   93.4903   15.3524 N.ar    1  UNL1       -0.1301
      4 C          65.8041   92.5173   14.9623 C.ar    1  UNL1        0.1700
      5 N          64.9831   91.5530   15.7661 N.ar    1  UNL1       -0.3105
      6 C          63.9625   90.6888   15.0866 C.ar    1  UNL1        0.1982
      7 N          63.7630   90.7890   13.6033 N.ar    1  UNL1       -0.1805
      8 C          64.5840   91.7533   12.7995 C.ar    1  UNL1        0.2317
      9 C          65.6045   92.6175   13.4790 C.ar    1  UNL1        0.1083
     10 H          65.1141   91.4872   16.7396 H       1  UNL1        0.1701
     11 C          67.3839   93.1756   10.5371 C.ar    1  UNL1        0.1402
     12 C          67.5227   93.5970    9.1042 C.ar    1  UNL1        0.0370
     13 C          66.9703   94.9168    8.6538 C.ar    1  UNL1        0.0031
     14 C          66.2791   95.8152    9.6363 C.ar    1  UNL1        0.0003
     15 C          66.1403   95.3938   11.0692 C.ar    1  UNL1        0.0046
     16 C          66.6928   94.0739   11.5196 C.ar    1  UNL1        0.0536
     17 C          68.8193   91.7860   12.1982 C.3     1  UNL1        0.2525
     18 O          67.9363   91.8558   10.9875 O.3     1  UNL1       -0.4714
     19 N          63.1416   89.7245   15.8904 N.pl3   1  UNL1       -0.3060
     20 H          62.4135   90.0566   16.4638 H       1  UNL1        0.1495
     21 C          63.4299   88.2541   15.8204 C.3     1  UNL1        0.0718
     22 C          64.2607   87.7053   14.6985 C.3     1  UNL1        0.0210
     23 C          64.5491   86.2349   14.6286 C.3     1  UNL1        0.0191
     24 C          64.0066   85.3134   15.6805 C.3     1  UNL1        0.0752
     25 C          63.1758   85.8622   16.8023 C.3     1  UNL1        0.0191
     26 C          62.8875   87.3325   16.8723 C.3     1  UNL1        0.0210
     27 N          64.2949   83.8430   15.6106 N.3     1  UNL1       -0.1847
     28 H          63.9708   83.4373   16.4885 H       1  UNL1        0.1484
     29 S          63.7058   83.0148   14.5073 S.O2    1  UNL1        0.0410
     30 O          64.8558   83.3826   13.6172 O.2     1  UNL1       -0.1575
     31 O          62.5559   82.6470   15.3975 O.2     1  UNL1       -0.1575
     32 C          63.1167   82.1867   13.4041 C.3     1  UNL1        0.1776
     33 C          63.5814   82.3802   11.9910 C.3     1  UNL1        0.1302
     34 C          63.2667   81.3471   10.9500 C.3     1  UNL1        0.3995
     35 F          62.9521   80.3141    9.9089 F       1  UNL1       -0.1700
     36 F          62.6267   80.4858   11.9981 F       1  UNL1       -0.1700
     37 F          63.9068   82.2084    9.9018 F       1  UNL1       -0.1700
     38 O          64.3844   91.8535   11.3162 O.3     1  UNL1       -0.4560
     39 C          63.2963   91.0640   10.6509 C.3     1  UNL1        0.2542
@<TRIPOS>BOND
     1    17    18    1
     2    18    11    1
     3    11    12   ar
     4    12    13   ar
     5    13    14   ar
     6    14    15   ar
     7    15    16   ar
     8    16     1    1
     9     1     2   ar
    10     2     3   ar
    11     3     4   ar
    12     4     5   ar
    13     5     6   ar
    14     6    19    1
    15    21    19    1
    16    21    22    1
    17    22    23    1
    18    23    24    1
    19    24    27    1
    20    27    29    1
    21    29    30    2
    22    29    31    2
    23    29    32    1
    24    32    33    1
    25    33    34    1
    26    34    35    1
    27    34    36    1
    28    34    37    1
    29    24    25    1
    30    25    26    1
    31     6     7   ar
    32     7     8   ar
    33     8    38    1
    34    38    39    1
    35     8     9   ar
    36    16    11   ar
    37     9     1   ar
    38     9     4    1
    39    26    21    1
    40     5    10    1
    41    19    20    1
    42    27    28    1
@<TRIPOS>MOLECULE
*****
 39 42 0 0 0
SMALL
GASTEIGER

@<TRIPOS>ATOM
      1 C          63.9112   83.9468   13.5522 C.ar    1  UNL1        0.1132
      2 N          64.4263   83.6831   14.9361 N.ar    1  UNL1       -0.1462
      3 N          64.4920   84.9931   15.6636 N.ar    1  UNL1       -0.1301
      4 C          64.0176   86.0666   14.7295 C.ar    1  UNL1        0.1700
      5 N          63.8661   87.5493   14.8985 N.ar    1  UNL1       -0.3105
      6 C          63.3556   88.3854   13.7625 C.ar    1  UNL1        0.1982
      7 N          62.9966   87.7387   12.4575 N.ar    1  UNL1       -0.1805
      8 C          63.1481   86.2559   12.2886 C.ar    1  UNL1        0.2317
      9 C          63.6586   85.4199   13.4245 C.ar    1  UNL1        0.1083
     10 H          64.1017   87.9737   15.7550 H       1  UNL1        0.1701
     11 C          62.8184   81.7272   12.7589 C.ar    1  UNL1        0.1402
     12 C          62.5951   80.6985   11.6904 C.ar    1  UNL1        0.0370
     13 C          63.2412   80.8607   10.3464 C.ar    1  UNL1        0.0031
     14 C          64.1106   82.0515   10.0711 C.ar    1  UNL1        0.0003
     15 C          64.3340   83.0803   11.1396 C.ar    1  UNL1        0.0046
     16 C          63.6879   82.9181   12.4836 C.ar    1  UNL1        0.0536
     17 C          60.7897   80.9925   14.2063 C.3     1  UNL1        0.2525
     18 O          62.1723   81.5651   14.1029 O.3     1  UNL1       -0.4714
     19 N          63.2041   89.8681   13.9315 N.pl3   1  UNL1       -0.3060
     20 H          62.4608   90.2291   14.4668 H       1  UNL1        0.1495
     21 C          64.1850   90.8007   13.2851 C.3     1  UNL1        0.0718
     22 C          63.9155   91.3377   11.9107 C.3     1  UNL1        0.0210
     23 C          64.8965   92.2704   11.2642 C.3     1  UNL1        0.0191
     24 C          66.1469   92.6660   11.9922 C.3     1  UNL1        0.0752
     25 C          66.4164   92.1289   13.3666 C.3     1  UNL1        0.0191
     26 C          65.4355   91.1963   14.0130 C.3     1  UNL1        0.0210
     27 N          67.1279   93.5986   11.3457 N.3     1  UNL1       -0.1847
     28 H          67.5119   93.1084   10.5379 H       1  UNL1        0.1484
     29 S          66.6759   94.9443   10.8610 S.O2    1  UNL1        0.0410
     30 O          66.0986   95.2377   12.2139 O.2     1  UNL1       -0.1575
     31 O          67.2533   94.6508    9.5080 O.2     1  UNL1       -0.1575
     32 C          66.2239   96.2899   10.3762 C.3     1  UNL1        0.1776
     33 C          66.7779   96.8526    9.1008 C.3     1  UNL1        0.1302
     34 C          65.9435   96.8482    7.8543 C.3     1  UNL1        0.3995
     35 F          65.1090   96.8438    6.6079 F       1  UNL1       -0.1700
     36 F          67.1899   96.8533    7.0199 F       1  UNL1       -0.1700
     37 F          64.6970   96.8430    8.6888 F       1  UNL1       -0.1700
     38 O          62.7891   85.6092   10.9836 O.3     1  UNL1       -0.4560
     39 C          61.4515   85.8739   10.3583 C.3     1  UNL1        0.2542
@<TRIPOS>BOND
     1    17    18    1
     2    18    11    1
     3    11    12   ar
     4    12    13   ar
     5    13    14   ar
     6    14    15   ar
     7    15    16   ar
     8    16     1    1
     9     1     2   ar
    10     2     3   ar
    11     3     4   ar
    12     4     5   ar
    13     5     6   ar
    14     6    19    1
    15    21    19    1
    16    21    22    1
    17    22    23    1
    18    23    24    1
    19    24    27    1
    20    27    29    1
    21    29    30    2
    22    29    31    2
    23    29    32    1
    24    32    33    1
    25    33    34    1
    26    34    35    1
    27    34    36    1
    28    34    37    1
    29    24    25    1
    30    25    26    1
    31     6     7   ar
    32     7     8   ar
    33     8    38    1
    34    38    39    1
    35     8     9   ar
    36    16    11   ar
    37     9     1   ar
    38     9     4    1
    39    26    21    1
    40     5    10    1
    41    19    20    1
    42    27    28    1
@<TRIPOS>MOLECULE
*****
 39 42 0 0 0
SMALL
GASTEIGER

@<TRIPOS>ATOM
      1 C          62.1318   86.6742   10.5838 C.ar    1  UNL1        0.1132
      2 N          62.3140   87.7959   11.5630 N.ar    1  UNL1       -0.1462
      3 N          61.5200   88.9710   11.0745 N.ar    1  UNL1       -0.1301
      4 C          60.8472   88.5756    9.7935 C.ar    1  UNL1        0.1700
      5 N          59.9390   89.3248    8.8640 N.ar    1  UNL1       -0.3105
      6 C          59.4090   88.6545    7.6312 C.ar    1  UNL1        0.1982
      7 N          59.7871   87.2349    7.3280 N.ar    1  UNL1       -0.1805
      8 C          60.6953   86.4858    8.2575 C.ar    1  UNL1        0.2317
      9 C          61.2253   87.1561    9.4903 C.ar    1  UNL1        0.1083
     10 H          59.6909   90.2565    9.0631 H       1  UNL1        0.1701
     11 C          62.7134   84.5625   11.9811 C.ar    1  UNL1        0.1402
     12 C          63.3295   83.1983   12.0786 C.ar    1  UNL1        0.0370
     13 C          63.9804   82.5818   10.8760 C.ar    1  UNL1        0.0031
     14 C          64.0151   83.3294    9.5760 C.ar    1  UNL1        0.0003
     15 C          63.3989   84.6936    9.4786 C.ar    1  UNL1        0.0046
     16 C          62.7480   85.3101   10.6812 C.ar    1  UNL1        0.0536
     17 C          62.3082   84.6039   14.5472 C.3     1  UNL1        0.2525
     18 O          62.0625   85.1790   13.1837 O.3     1  UNL1       -0.4714
     19 N          58.5008   89.4036    6.7017 N.pl3   1  UNL1       -0.3060
     20 H          57.5287   89.2520    6.7350 H       1  UNL1        0.1495
     21 C          59.0739   90.3839    5.7216 C.3     1  UNL1        0.0718
     22 C          60.5414   90.3636    5.4116 C.3     1  UNL1        0.0210
     23 C          61.1145   91.3439    4.4314 C.3     1  UNL1        0.0191
     24 C          60.2201   92.3443    3.7613 C.3     1  UNL1        0.0752
     25 C          58.7527   92.3646    4.0713 C.3     1  UNL1        0.0191
     26 C          58.1796   91.3844    5.0514 C.3     1  UNL1        0.0210
     27 N          60.7932   93.3246    2.7811 N.3     1  UNL1       -0.1847
     28 H          61.6892   92.9453    2.4749 H       1  UNL1        0.1484
     29 S          60.0273   93.6805    1.5414 S.O2    1  UNL1        0.0410
     30 O          59.7593   95.0468    2.0992 O.2     1  UNL1       -0.1575
     31 O          60.2953   92.3141    0.9836 O.2     1  UNL1       -0.1575
     32 C          59.2614   94.0363    0.3017 C.3     1  UNL1        0.1776
     33 C          58.4823   92.9818   -0.4271 C.3     1  UNL1        0.1302
     34 C          57.0944   93.2767   -0.9136 C.3     1  UNL1        0.3995
     35 F          55.7065   93.5715   -1.4002 F       1  UNL1       -0.1700
     36 F          56.8870   91.8199   -1.2048 F       1  UNL1       -0.1700
     37 F          57.3019   94.7334   -0.6225 F       1  UNL1       -0.1700
     38 O          61.0734   85.0662    7.9543 O.3     1  UNL1       -0.4560
     39 C          61.3951   84.6602    6.5465 C.3     1  UNL1        0.2542
@<TRIPOS>BOND
     1    17    18    1
     2    18    11    1
     3    11    12   ar
     4    12    13   ar
     5    13    14   ar
     6    14    15   ar
     7    15    16   ar
     8    16     1    1
     9     1     2   ar
    10     2     3   ar
    11     3     4   ar
    12     4     5   ar
    13     5     6   ar
    14     6    19    1
    15    21    19    1
    16    21    22    1
    17    22    23    1
    18    23    24    1
    19    24    27    1
    20    27    29    1
    21    29    30    2
    22    29    31    2
    23    29    32    1
    24    32    33    1
    25    33    34    1
    26    34    35    1
    27    34    36    1
    28    34    37    1
    29    24    25    1
    30    25    26    1
    31     6     7   ar
    32     7     8   ar
    33     8    38    1
    34    38    39    1
    35     8     9   ar
    36    16    11   ar
    37     9     1   ar
    38     9     4    1
    39    26    21    1
    40     5    10    1
    41    19    20    1
    42    27    28    1
@<TRIPOS>MOLECULE
*****
 39 42 0 0 0
SMALL
GASTEIGER

@<TRIPOS>ATOM
      1 C          65.3796   92.3672   12.6705 C.ar    1  UNL1        0.1132
      2 N          65.3796   93.3381   11.5271 N.ar    1  UNL1       -0.1462
      3 N          64.5033   92.7798   10.4452 N.ar    1  UNL1       -0.1301
      4 C          63.9619   91.4640   10.9199 C.ar    1  UNL1        0.1700
      5 N          63.0457   90.4651   10.2775 N.ar    1  UNL1       -0.3105
      6 C          62.6710   89.2111   11.0104 C.ar    1  UNL1        0.1982
      7 N          63.2126   88.9560   12.3858 N.ar    1  UNL1       -0.1805
      8 C          64.1288   89.9550   13.0282 C.ar    1  UNL1        0.2317
      9 C          64.5035   91.2089   12.2953 C.ar    1  UNL1        0.1083
     10 H          62.6902   90.6325    9.3748 H       1  UNL1        0.1701
     11 C          67.6200   92.6487   13.9556 C.ar    1  UNL1        0.1402
     12 C          68.3655   92.8081   15.2475 C.ar    1  UNL1        0.0370
     13 C          67.6159   92.8452   16.5462 C.ar    1  UNL1        0.0031
     14 C          66.1209   92.7230   16.5531 C.ar    1  UNL1        0.0003
     15 C          65.3754   92.5637   15.2612 C.ar    1  UNL1        0.0046
     16 C          66.1250   92.5265   13.9624 C.ar    1  UNL1        0.0536
     17 C          68.8057   91.2974   12.0799 C.3     1  UNL1        0.2525
     18 O          68.3696   92.6116   12.6569 O.3     1  UNL1       -0.4714
     19 N          61.7548   88.2122   10.3680 N.pl3   1  UNL1       -0.3060
     20 H          60.9037   88.5086    9.9716 H       1  UNL1        0.1495
     21 C          62.1352   86.7618   10.3296 C.3     1  UNL1        0.0718
     22 C          62.7104   86.1702    9.0769 C.3     1  UNL1        0.0210
     23 C          63.0908   84.7197    9.0386 C.3     1  UNL1        0.0191
     24 C          62.8961   83.8609   10.2529 C.3     1  UNL1        0.0752
     25 C          62.3209   84.4525   11.5055 C.3     1  UNL1        0.0191
     26 C          61.9405   85.9029   11.5439 C.3     1  UNL1        0.0210
     27 N          63.2765   82.4104   10.2145 N.3     1  UNL1       -0.1847
     28 H          64.0593   82.3284    9.5657 H       1  UNL1        0.1484
     29 S          63.6840   81.7083   11.4758 S.O2    1  UNL1        0.0410
     30 O          62.4696   80.8330   11.3810 O.2     1  UNL1       -0.1575
     31 O          64.8985   82.5836   11.5707 O.2     1  UNL1       -0.1575
     32 C          64.0916   81.0063   12.7372 C.3     1  UNL1        0.1776
     33 C          63.1492   80.9514   13.9030 C.3     1  UNL1        0.1302
     34 C          62.5058   82.2092   14.4071 C.3     1  UNL1        0.3995
     35 F          61.8624   83.4669   14.9112 F       1  UNL1       -0.1700
     36 F          61.1509   81.6059   14.1829 F       1  UNL1       -0.1700
     37 F          63.8608   82.8124   14.6314 F       1  UNL1       -0.1700
     38 O          64.6704   89.7000   14.4036 O.3     1  UNL1       -0.4560
     39 C          63.7356   89.3616   15.5269 C.3     1  UNL1        0.2542
@<TRIPOS>BOND
     1    17    18    1
     2    18    11    1
     3    11    12   ar
     4    12    13   ar
     5    13    14   ar
     6    14    15   ar
     7    15    16   ar
     8    16     1    1
     9     1     2   ar
    10     2     3   ar
    11     3     4   ar
    12     4     5   ar
    13     5     6   ar
    14     6    19    1
    15    21    19    1
    16    21    22    1
    17    22    23    1
    18    23    24    1
    19    24    27    1
    20    27    29    1
    21    29    30    2
    22    29    31    2
    23    29    32    1
    24    32    33    1
    25    33    34    1
    26    34    35    1
    27    34    36    1
    28    34    37    1
    29    24    25    1
    30    25    26    1
    31     6     7   ar
    32     7     8   ar
    33     8    38    1
    34    38    39    1
    35     8     9   ar
    36    16    11   ar
    37     9     1   ar
    38     9     4    1
    39    26    21    1
    40     5    10    1
    41    19    20    1
    42    27    28    1
@<TRIPOS>MOLECULE
*****
 39 42 0 0 0
SMALL
GASTEIGER

@<TRIPOS>ATOM
      1 C          66.4100   94.2412   12.4811 C.ar    1  UNL1        0.1132
      2 N          67.1237   94.7650   13.6920 N.ar    1  UNL1       -0.1462
      3 N          66.9333   93.7779   14.8053 N.ar    1  UNL1       -0.1301
      4 C          66.1019   92.6441   14.2824 C.ar    1  UNL1        0.1700
      5 N          65.5975   91.3880   14.9287 N.ar    1  UNL1       -0.3105
      6 C          64.7697   90.4182   14.1386 C.ar    1  UNL1        0.1982
      7 N          64.4463   90.7046   12.7021 N.ar    1  UNL1       -0.1805
      8 C          64.9507   91.9608   12.0558 C.ar    1  UNL1        0.2317
      9 C          65.7785   92.9305   12.8460 C.ar    1  UNL1        0.1083
     10 H          65.8098   91.2001   15.8715 H       1  UNL1        0.1701
     11 C          67.0808   94.3300    9.9727 C.ar    1  UNL1        0.1402
     12 C          67.0110   94.9994    8.6321 C.ar    1  UNL1        0.0370
     13 C          66.2003   96.2496    8.4595 C.ar    1  UNL1        0.0031
     14 C          65.4596   96.8303    9.6274 C.ar    1  UNL1        0.0003
     15 C          65.5294   96.1609   10.9680 C.ar    1  UNL1        0.0046
     16 C          66.3401   94.9107   11.1406 C.ar    1  UNL1        0.0536
     17 C          68.6073   92.4818    8.9705 C.3     1  UNL1        0.2525
     18 O          67.8915   93.0798   10.1453 O.3     1  UNL1       -0.4714
     19 N          64.2654   89.1621   14.7849 N.pl3   1  UNL1       -0.3060
     20 H          64.1916   89.1082   15.7651 H       1  UNL1        0.1495
     21 C          63.8734   87.9880   13.9376 C.3     1  UNL1        0.0718
     22 C          63.1011   88.2026   12.6698 C.3     1  UNL1        0.0210
     23 C          62.7091   87.0284   11.8225 C.3     1  UNL1        0.0191
     24 C          63.0893   85.6398   12.2431 C.3     1  UNL1        0.0752
     25 C          63.8616   85.4252   13.5110 C.3     1  UNL1        0.0191
     26 C          64.2537   86.5993   14.3583 C.3     1  UNL1        0.0210
     27 N          62.6973   84.4656   11.3959 N.3     1  UNL1       -0.1847
     28 H          62.9735   84.6874   10.4394 H       1  UNL1        0.1484
     29 S          63.2475   83.1038   11.7007 S.O2    1  UNL1        0.0410
     30 O          62.1193   82.8626   12.6594 O.2     1  UNL1       -0.1575
     31 O          64.3757   83.3450   10.7421 O.2     1  UNL1       -0.1575
     32 C          63.7976   81.7421   12.0056 C.3     1  UNL1        0.1776
     33 C          62.8828   80.5538   12.0389 C.3     1  UNL1        0.1302
     34 C          62.8309   79.6141   10.8709 C.3     1  UNL1        0.3995
     35 F          62.7791   78.6745    9.7028 F       1  UNL1       -0.1700
     36 F          63.0037   80.7714    9.9323 F       1  UNL1       -0.1700
     37 F          62.6582   78.4569   11.8095 F       1  UNL1       -0.1700
     38 O          64.6273   92.2471   10.6194 O.3     1  UNL1       -0.4560
     39 C          63.3507   91.7345   10.0214 C.3     1  UNL1        0.2542
@<TRIPOS>BOND
     1    17    18    1
     2    18    11    1
     3    11    12   ar
     4    12    13   ar
     5    13    14   ar
     6    14    15   ar
     7    15    16   ar
     8    16     1    1
     9     1     2   ar
    10     2     3   ar
    11     3     4   ar
    12     4     5   ar
    13     5     6   ar
    14     6    19    1
    15    21    19    1
    16    21    22    1
    17    22    23    1
    18    23    24    1
    19    24    27    1
    20    27    29    1
    21    29    30    2
    22    29    31    2
    23    29    32    1
    24    32    33    1
    25    33    34    1
    26    34    35    1
    27    34    36    1
    28    34    37    1
    29    24    25    1
    30    25    26    1
    31     6     7   ar
    32     7     8   ar
    33     8    38    1
    34    38    39    1
    35     8     9   ar
    36    16    11   ar
    37     9     1   ar
    38     9     4    1
    39    26    21    1
    40     5    10    1
    41    19    20    1
    42    27    28    1
@<TRIPOS>MOLECULE
*****
 39 42 0 0 0
SMALL
GASTEIGER

@<TRIPOS>ATOM
      1 C          62.3560   85.0062   11.7774 C.ar    1  UNL1        0.1132
      2 N          61.3910   85.7541   10.9060 N.ar    1  UNL1       -0.1462
      3 N          61.4769   87.2088   11.2617 N.ar    1  UNL1       -0.1301
      4 C          62.4950   87.3599   12.3528 C.ar    1  UNL1        0.1700
      5 N          62.9975   88.5612   13.0974 N.ar    1  UNL1       -0.3105
      6 C          64.0434   88.4012   14.1607 C.ar    1  UNL1        0.1982
      7 N          64.5867   87.0399   14.4794 N.ar    1  UNL1       -0.1805
      8 C          64.0842   85.8385   13.7348 C.ar    1  UNL1        0.2317
      9 C          63.0383   85.9986   12.6716 C.ar    1  UNL1        0.1083
     10 H          62.6409   89.4546   12.8882 H       1  UNL1        0.1701
     11 C          63.4216   82.9142   10.6647 C.ar    1  UNL1        0.1402
     12 C          63.6622   81.4337   10.6452 C.ar    1  UNL1        0.0370
     13 C          63.0777   80.5647   11.7191 C.ar    1  UNL1        0.0031
     14 C          62.2526   81.1763   12.8124 C.ar    1  UNL1        0.0003
     15 C          62.0120   82.6568   12.8318 C.ar    1  UNL1        0.0046
     16 C          62.5966   83.5257   11.7580 C.ar    1  UNL1        0.0536
     17 C          63.1351   84.2920    8.4806 C.3     1  UNL1        0.2525
     18 O          64.0062   83.7831    9.5908 O.3     1  UNL1       -0.4714
     19 N          64.5458   89.6025   14.9053 N.pl3   1  UNL1       -0.3060
     20 H          64.4624   89.6446   15.8853 H       1  UNL1        0.1495
     21 C          65.1754   90.7396   14.1566 C.3     1  UNL1        0.0718
     22 C          66.5608   91.1940   14.5091 C.3     1  UNL1        0.0210
     23 C          67.1903   92.3312   13.7603 C.3     1  UNL1        0.0191
     24 C          66.4345   93.0139   12.6591 C.3     1  UNL1        0.0752
     25 C          65.0492   92.5594   12.3066 C.3     1  UNL1        0.0191
     26 C          64.4196   91.4223   13.0553 C.3     1  UNL1        0.0210
     27 N          67.0641   94.1510   11.9104 N.3     1  UNL1       -0.1847
     28 H          67.7968   93.7489   11.3258 H       1  UNL1        0.1484
     29 S          66.2252   95.0174   11.0184 S.O2    1  UNL1        0.0410
     30 O          66.1585   96.0605   12.0943 O.2     1  UNL1       -0.1575
     31 O          66.2918   93.9743    9.9425 O.2     1  UNL1       -0.1575
     32 C          65.3863   95.8838   10.1264 C.3     1  UNL1        0.1776
     33 C          66.0433   96.8506    9.1863 C.3     1  UNL1        0.1302
     34 C          65.7829   96.7577    7.7120 C.3     1  UNL1        0.3995
     35 F          65.5224   96.6648    6.2377 F       1  UNL1       -0.1700
     36 F          67.2558   96.8555    7.4457 F       1  UNL1       -0.1700
     37 F          64.3100   96.6599    7.9784 F       1  UNL1       -0.1700
     38 O          64.6275   84.4772   14.0536 O.3     1  UNL1       -0.4560
     39 C          64.1788   83.7620   15.2935 C.3     1  UNL1        0.2542
@<TRIPOS>BOND
     1    17    18    1
     2    18    11    1
     3    11    12   ar
     4    12    13   ar
     5    13    14   ar
     6    14    15   ar
     7    15    16   ar
     8    16     1    1
     9     1     2   ar
    10     2     3   ar
    11     3     4   ar
    12     4     5   ar
    13     5     6   ar
    14     6    19    1
    15    21    19    1
    16    21    22    1
    17    22    23    1
    18    23    24    1
    19    24    27    1
    20    27    29    1
    21    29    30    2
    22    29    31    2
    23    29    32    1
    24    32    33    1
    25    33    34    1
    26    34    35    1
    27    34    36    1
    28    34    37    1
    29    24    25    1
    30    25    26    1
    31     6     7   ar
    32     7     8   ar
    33     8    38    1
    34    38    39    1
    35     8     9   ar
    36    16    11   ar
    37     9     1   ar
    38     9     4    1
    39    26    21    1
    40     5    10    1
    41    19    20    1
    42    27    28    1
@<TRIPOS>MOLECULE
*****
 39 42 0 0 0
SMALL
GASTEIGER

@<TRIPOS>ATOM
      1 C          62.1163   86.5685   10.6203 C.ar    1  UNL1        0.1132
      2 N          62.2531   87.6848   11.6129 N.ar    1  UNL1       -0.1462
      3 N          61.3931   88.8237   11.1510 N.ar    1  UNL1       -0.1301
      4 C          60.7249   88.4114    9.8729 C.ar    1  UNL1        0.1700
      5 N          59.7672   89.1250    8.9655 N.ar    1  UNL1       -0.3105
      6 C          59.2564   88.4448    7.7299 C.ar    1  UNL1        0.1982
      7 N          59.7034   87.0510    7.4019 N.ar    1  UNL1       -0.1805
      8 C          60.6611   86.3374    8.3094 C.ar    1  UNL1        0.2317
      9 C          61.1718   87.0176    9.5449 C.ar    1  UNL1        0.1083
     10 H          59.4738   90.0398    9.1808 H       1  UNL1        0.1701
     11 C          62.8207   84.4691   11.9790 C.ar    1  UNL1        0.1402
     12 C          63.5078   83.1375   12.0495 C.ar    1  UNL1        0.0370
     13 C          64.1775   82.5739   10.8314 C.ar    1  UNL1        0.0031
     14 C          64.1601   83.3417    9.5430 C.ar    1  UNL1        0.0003
     15 C          63.4731   84.6733    9.4725 C.ar    1  UNL1        0.0046
     16 C          62.8034   85.2370   10.6906 C.ar    1  UNL1        0.0536
     17 C          62.4822   84.4881   14.5550 C.3     1  UNL1        0.2525
     18 O          62.1510   85.0328   13.1971 O.3     1  UNL1       -0.4714
     19 N          58.2987   89.1584    6.8224 N.pl3   1  UNL1       -0.3060
     20 H          57.3405   88.9332    6.8429 H       1  UNL1        0.1495
     21 C          58.8009   90.2151    5.8838 C.3     1  UNL1        0.0718
     22 C          57.8398   91.1850    5.2628 C.3     1  UNL1        0.0210
     23 C          58.3421   92.2417    4.3241 C.3     1  UNL1        0.0191
     24 C          59.8054   92.3285    4.0063 C.3     1  UNL1        0.0752
     25 C          60.7665   91.3586    4.6273 C.3     1  UNL1        0.0191
     26 C          60.2643   90.3019    5.5659 C.3     1  UNL1        0.0210
     27 N          60.3077   93.3852    3.0676 N.3     1  UNL1       -0.1847
     28 H          61.1443   93.7839    3.4936 H       1  UNL1        0.1484
     29 S          60.6696   93.0249    1.6572 S.O2    1  UNL1        0.0410
     30 O          62.1086   92.8940    2.0599 O.2     1  UNL1       -0.1575
     31 O          59.2306   93.1557    1.2545 O.2     1  UNL1       -0.1575
     32 C          61.0316   92.6645    0.2469 C.3     1  UNL1        0.1776
     33 C          61.4971   93.7281   -0.7030 C.3     1  UNL1        0.1302
     34 C          62.2357   93.3472   -1.9518 C.3     1  UNL1        0.3995
     35 F          62.9743   92.9663   -3.2006 F       1  UNL1       -0.1700
     36 F          60.9402   93.3115   -2.7071 F       1  UNL1       -0.1700
     37 F          63.5312   93.3829   -1.1965 F       1  UNL1       -0.1700
     38 O          61.1081   84.9436    7.9814 O.3     1  UNL1       -0.4560
     39 C          61.3954   84.5634    6.5591 C.3     1  UNL1        0.2542
@<TRIPOS>BOND
     1    17    18    1
     2    18    11    1
     3    11    12   ar
     4    12    13   ar
     5    13    14   ar
     6    14    15   ar
     7    15    16   ar
     8    16     1    1
     9     1     2   ar
    10     2     3   ar
    11     3     4   ar
    12     4     5   ar
    13     5     6   ar
    14     6    19    1
    15    21    19    1
    16    21    22    1
    17    22    23    1
    18    23    24    1
    19    24    27    1
    20    27    29    1
    21    29    30    2
    22    29    31    2
    23    29    32    1
    24    32    33    1
    25    33    34    1
    26    34    35    1
    27    34    36    1
    28    34    37    1
    29    24    25    1
    30    25    26    1
    31     6     7   ar
    32     7     8   ar
    33     8    38    1
    34    38    39    1
    35     8     9   ar
    36    16    11   ar
    37     9     1   ar
    38     9     4    1
    39    26    21    1
    40     5    10    1
    41    19    20    1
    42    27    28    1
@<TRIPOS>MOLECULE
*****
 39 42 0 0 0
SMALL
GASTEIGER

@<TRIPOS>ATOM
      1 C          62.6494   84.5329   12.3839 C.ar    1  UNL1        0.1132
      2 N          62.0561   85.1341   11.1443 N.ar    1  UNL1       -0.1462
      3 N          62.3203   86.6104   11.1730 N.ar    1  UNL1       -0.1301
      4 C          63.0768   86.9216   12.4303 C.ar    1  UNL1        0.1700
      5 N          63.6067   88.2082   12.9905 N.ar    1  UNL1       -0.3105
      6 C          64.3400   88.2109   14.2991 C.ar    1  UNL1        0.1982
      7 N          64.5434   86.9269   15.0474 N.ar    1  UNL1       -0.1805
      8 C          64.0135   85.6403   14.4872 C.ar    1  UNL1        0.2317
      9 C          63.2802   85.6376   13.1787 C.ar    1  UNL1        0.1083
     10 H          63.4732   89.0509   12.4993 H       1  UNL1        0.1701
     11 C          63.6316   82.1354   12.1915 C.ar    1  UNL1        0.1402
     12 C          63.5997   80.6842   12.5698 C.ar    1  UNL1        0.0370
     13 C          62.5536   80.1794   13.5190 C.ar    1  UNL1        0.0031
     14 C          61.5395   81.1258   14.0897 C.ar    1  UNL1        0.0003
     15 C          61.5714   82.5770   13.7114 C.ar    1  UNL1        0.0046
     16 C          62.6174   83.0818   12.7623 C.ar    1  UNL1        0.0536
     17 C          64.3054   82.9877    9.8313 C.3     1  UNL1        0.2525
     18 O          64.6777   82.6401   11.2423 O.3     1  UNL1       -0.4714
     19 N          64.8700   89.4975   14.8592 N.pl3   1  UNL1       -0.3060
     20 H          65.1314   89.5511   15.8068 H       1  UNL1        0.1495
     21 C          65.0015   90.7023   13.9755 C.3     1  UNL1        0.0718
     22 C          66.1133   91.6828   14.2048 C.3     1  UNL1        0.0210
     23 C          66.2448   92.8877   13.3210 C.3     1  UNL1        0.0191
     24 C          65.2646   93.1121   12.2080 C.3     1  UNL1        0.0752
     25 C          64.1528   92.1316   11.9787 C.3     1  UNL1        0.0191
     26 C          64.0213   90.9268   12.8624 C.3     1  UNL1        0.0210
     27 N          65.3961   94.3170   11.3242 N.3     1  UNL1       -0.1847
     28 H          65.4369   95.1300   11.9389 H       1  UNL1        0.1484
     29 S          66.5550   94.4306   10.3786 S.O2    1  UNL1        0.0410
     30 O          66.1006   93.1876    9.6725 O.2     1  UNL1       -0.1575
     31 O          67.0094   95.6735   11.0847 O.2     1  UNL1       -0.1575
     32 C          67.7138   94.5442    9.4330 C.3     1  UNL1        0.1776
     33 C          68.8397   93.5555    9.5042 C.3     1  UNL1        0.1302
     34 C          68.5920   92.1122    9.1795 C.3     1  UNL1        0.3995
     35 F          68.3444   90.6688    8.8547 F       1  UNL1       -0.1700
     36 F          68.4949   91.7995   10.6433 F       1  UNL1       -0.1700
     37 F          68.6892   92.4249    7.7157 F       1  UNL1       -0.1700
     38 O          64.2168   84.3563   15.2356 O.3     1  UNL1       -0.4560
     39 C          63.1921   83.8976   16.2304 C.3     1  UNL1        0.2542
@<TRIPOS>BOND
     1    17    18    1
     2    18    11    1
     3    11    12   ar
     4    12    13   ar
     5    13    14   ar
     6    14    15   ar
     7    15    16   ar
     8    16     1    1
     9     1     2   ar
    10     2     3   ar
    11     3     4   ar
    12     4     5   ar
    13     5     6   ar
    14     6    19    1
    15    21    19    1
    16    21    22    1
    17    22    23    1
    18    23    24    1
    19    24    27    1
    20    27    29    1
    21    29    30    2
    22    29    31    2
    23    29    32    1
    24    32    33    1
    25    33    34    1
    26    34    35    1
    27    34    36    1
    28    34    37    1
    29    24    25    1
    30    25    26    1
    31     6     7   ar
    32     7     8   ar
    33     8    38    1
    34    38    39    1
    35     8     9   ar
    36    16    11   ar
    37     9     1   ar
    38     9     4    1
    39    26    21    1
    40     5    10    1
    41    19    20    1
    42    27    28    1
