@<TRIPOS>MOLECULE
*****
 30 34 0 0 0
SMALL
GASTEIGER

@<TRIPOS>ATOM
      1 C          64.2318   88.3306   14.6913 C.3     1  UNL1        0.1560
      2 C          64.1712   86.8942   14.2634 C.ar    1  UNL1        0.1834
      3 N          64.8293   85.7389   14.9579 N.ar    1  UNL1       -0.1298
      4 N          64.5068   84.4916   14.1896 N.ar    1  UNL1       -0.1272
      5 C          63.6494   84.8760   13.0203 C.ar    1  UNL1        0.1864
      6 C          63.0308   84.0659   11.9200 C.ar    1  UNL1        0.0422
      7 C          62.2047   84.7405   10.8652 C.ar    1  UNL1        0.0241
      8 C          61.9974   86.2254   10.9109 C.ar    1  UNL1        0.1015
      9 N          62.6160   87.0356   12.0112 N.ar    1  UNL1       -0.1626
     10 N          63.4421   86.3609   13.0660 N.ar    1  UNL1       -0.1935
     11 C          61.1713   86.9001    9.8561 C.ar    1  UNL1        0.0194
     12 C          60.9971   88.3898    9.8789 C.ar    1  UNL1        0.0016
     13 C          60.1710   89.0644    8.8241 C.ar    1  UNL1        0.0000
     14 C          59.5193   88.2495    7.7467 C.ar    1  UNL1        0.0000
     15 C          59.6936   86.7599    7.7239 C.ar    1  UNL1        0.0000
     16 C          60.5196   86.0852    8.7786 C.ar    1  UNL1        0.0016
     17 N          63.3001   89.3350   14.0804 N.pl3   1  UNL1       -0.3264
     18 H          62.3409   89.3146   14.3011 H       1  UNL1        0.1472
     19 C          66.9663   93.2875   14.5137 C.ar    1  UNL1        0.1402
     20 C          66.4364   92.2519   15.4608 C.ar    1  UNL1        0.0370
     21 C          65.3910   91.2796   15.0006 C.ar    1  UNL1        0.0058
     22 C          64.8754   91.3429   13.5935 C.ar    1  UNL1        0.0310
     23 C          63.8300   90.3706   13.1334 C.ar    1  UNL1        0.0479
     24 C          63.3144   90.4338   11.7262 C.ar    1  UNL1        0.0350
     25 C          63.8442   91.4693   10.7791 C.ar    1  UNL1        0.1001
     26 N          64.8896   92.4416   11.2392 N.ar    1  UNL1       -0.2437
     27 C          65.4052   92.3784   12.6465 C.ar    1  UNL1        0.0855
     28 C          66.4507   93.3507   13.1066 C.ar    1  UNL1        0.0560
     29 C          69.0386   93.8358   15.9816 C.3     1  UNL1        0.2525
     30 O          68.0117   94.2598   14.9738 O.3     1  UNL1       -0.4714
@<TRIPOS>BOND
     1    29    30    1
     2    30    19    1
     3    19    20   ar
     4    20    21   ar
     5    21    22   ar
     6    22    23   ar
     7    23    17    1
     8    17     1    1
     9     1     2    1
    10     2     3   ar
    11     3     4   ar
    12     4     5   ar
    13     5     6   ar
    14     6     7   ar
    15     7     8   ar
    16     8    11    1
    17    11    12   ar
    18    12    13   ar
    19    13    14   ar
    20    14    15   ar
    21    15    16   ar
    22     8     9   ar
    23     9    10   ar
    24    23    24   ar
    25    24    25   ar
    26    25    26   ar
    27    26    27   ar
    28    27    28   ar
    29    28    19   ar
    30    27    22   ar
    31    10     2   ar
    32    10     5   ar
    33    16    11   ar
    34    17    18    1
@<TRIPOS>MOLECULE
*****
 30 34 0 0 0
SMALL
GASTEIGER

@<TRIPOS>ATOM
      1 C          61.7531   90.2505   12.2018 C.3     1  UNL1        0.1560
      2 C          61.1390   89.6735   10.9607 C.ar    1  UNL1        0.1834
      3 N          60.2416   90.3984   10.0021 N.ar    1  UNL1       -0.1298
      4 N          59.8625   89.4433    8.9094 N.ar    1  UNL1       -0.1272
      5 C          60.5257   88.1279    9.1928 C.ar    1  UNL1        0.1864
      6 C          60.5131   86.8192    8.4602 C.ar    1  UNL1        0.0422
      7 C          61.2895   85.6525    8.9954 C.ar    1  UNL1        0.0241
      8 C          62.0784   85.7949   10.2632 C.ar    1  UNL1        0.1015
      9 N          62.0910   87.1038   10.9958 N.ar    1  UNL1       -0.1626
     10 N          61.3146   88.2703   10.4606 N.ar    1  UNL1       -0.1935
     11 C          62.8548   84.6284   10.7984 C.ar    1  UNL1        0.0194
     12 C          62.8468   84.3334   12.2691 C.ar    1  UNL1        0.0016
     13 C          63.6232   83.1668   12.8043 C.ar    1  UNL1        0.0000
     14 C          64.4075   82.2953   11.8688 C.ar    1  UNL1        0.0000
     15 C          64.4155   82.5902   10.3981 C.ar    1  UNL1        0.0000
     16 C          63.6392   83.7568    9.8629 C.ar    1  UNL1        0.0016
     17 N          63.1308   89.8313   12.6215 N.pl3   1  UNL1       -0.3264
     18 H          63.4694   88.9393   12.3785 H       1  UNL1        0.1472
     19 C          66.4206   93.9141   11.2956 C.ar    1  UNL1        0.1402
     20 C          65.5587   92.9744   10.5057 C.ar    1  UNL1        0.0370
     21 C          64.7494   91.9267   11.2110 C.ar    1  UNL1        0.0058
     22 C          64.8020   91.8187   12.7061 C.ar    1  UNL1        0.0310
     23 C          63.9927   90.7710   13.4114 C.ar    1  UNL1        0.0479
     24 C          64.0454   90.6630   14.9065 C.ar    1  UNL1        0.0350
     25 C          64.9073   91.6027   15.6965 C.ar    1  UNL1        0.1001
     26 N          65.7166   92.6505   14.9913 N.ar    1  UNL1       -0.2437
     27 C          65.6639   92.7584   13.4960 C.ar    1  UNL1        0.0855
     28 C          66.4732   93.8061   12.7908 C.ar    1  UNL1        0.0560
     29 C          67.6634   94.7452    9.1709 C.3     1  UNL1        0.2525
     30 O          67.2298   94.9618   10.5904 O.3     1  UNL1       -0.4714
@<TRIPOS>BOND
     1    29    30    1
     2    30    19    1
     3    19    20   ar
     4    20    21   ar
     5    21    22   ar
     6    22    23   ar
     7    23    17    1
     8    17     1    1
     9     1     2    1
    10     2     3   ar
    11     3     4   ar
    12     4     5   ar
    13     5     6   ar
    14     6     7   ar
    15     7     8   ar
    16     8    11    1
    17    11    12   ar
    18    12    13   ar
    19    13    14   ar
    20    14    15   ar
    21    15    16   ar
    22     8     9   ar
    23     9    10   ar
    24    23    24   ar
    25    24    25   ar
    26    25    26   ar
    27    26    27   ar
    28    27    28   ar
    29    28    19   ar
    30    27    22   ar
    31    10     2   ar
    32    10     5   ar
    33    16    11   ar
    34    17    18    1
@<TRIPOS>MOLECULE
*****
 30 34 0 0 0
SMALL
GASTEIGER

@<TRIPOS>ATOM
      1 C          64.1203   84.8926   14.5155 C.3     1  UNL1        0.1560
      2 C          63.7305   85.8968   15.5595 C.ar    1  UNL1        0.1834
      3 N          63.3033   85.5880   16.9638 N.ar    1  UNL1       -0.1298
      4 N          63.0082   86.8864   17.6546 N.ar    1  UNL1       -0.1272
      5 C          63.2529   87.9976   16.6771 C.ar    1  UNL1        0.1864
      6 C          63.1270   89.4873   16.7988 C.ar    1  UNL1        0.0422
      7 C          63.4475   90.3654   15.6257 C.ar    1  UNL1        0.0241
      8 C          63.8939   89.7538   14.3309 C.ar    1  UNL1        0.1015
      9 N          64.0198   88.2640   14.2092 N.ar    1  UNL1       -0.1626
     10 N          63.6993   87.3859   15.3823 N.ar    1  UNL1       -0.1935
     11 C          64.2144   90.6319   13.1577 C.ar    1  UNL1        0.0194
     12 C          65.3258   91.6347   13.2530 C.ar    1  UNL1        0.0016
     13 C          65.6462   92.5128   12.0798 C.ar    1  UNL1        0.0000
     14 C          64.8553   92.3880   10.8115 C.ar    1  UNL1        0.0000
     15 C          63.7439   91.3852   10.7162 C.ar    1  UNL1        0.0000
     16 C          63.4234   90.5072   11.8893 C.ar    1  UNL1        0.0016
     17 N          63.0686   84.2622   13.6515 N.pl3   1  UNL1       -0.3264
     18 H          62.2449   83.9080   14.0580 H       1  UNL1        0.1472
     19 C          61.1458   87.0376    9.4265 C.ar    1  UNL1        0.1402
     20 C          60.9425   87.1281   10.9099 C.ar    1  UNL1        0.0370
     21 C          61.6512   86.1728   11.8238 C.ar    1  UNL1        0.0058
     22 C          62.5632   85.1270   11.2543 C.ar    1  UNL1        0.0310
     23 C          63.2719   84.1717   12.1681 C.ar    1  UNL1        0.0479
     24 C          64.1839   83.1259   11.5986 C.ar    1  UNL1        0.0350
     25 C          64.3873   83.0353   10.1152 C.ar    1  UNL1        0.1001
     26 N          63.6786   83.9906    9.2013 N.ar    1  UNL1       -0.2437
     27 C          62.7665   85.0365    9.7709 C.ar    1  UNL1        0.0855
     28 C          62.0578   85.9918    8.8570 C.ar    1  UNL1        0.0560
     29 C          59.2727   87.5222    7.6926 C.3     1  UNL1        0.2525
     30 O          60.4371   87.9929    8.5127 O.3     1  UNL1       -0.4714
@<TRIPOS>BOND
     1    29    30    1
     2    30    19    1
     3    19    20   ar
     4    20    21   ar
     5    21    22   ar
     6    22    23   ar
     7    23    17    1
     8    17     1    1
     9     1     2    1
    10     2     3   ar
    11     3     4   ar
    12     4     5   ar
    13     5     6   ar
    14     6     7   ar
    15     7     8   ar
    16     8    11    1
    17    11    12   ar
    18    12    13   ar
    19    13    14   ar
    20    14    15   ar
    21    15    16   ar
    22     8     9   ar
    23     9    10   ar
    24    23    24   ar
    25    24    25   ar
    26    25    26   ar
    27    26    27   ar
    28    27    28   ar
    29    28    19   ar
    30    27    22   ar
    31    10     2   ar
    32    10     5   ar
    33    16    11   ar
    34    17    18    1
@<TRIPOS>MOLECULE
*****
 30 34 0 0 0
SMALL
GASTEIGER

@<TRIPOS>ATOM
      1 C          64.2080   88.9207   14.6837 C.3     1  UNL1        0.1560
      2 C          64.1717   87.4610   14.3400 C.ar    1  UNL1        0.1834
      3 N          64.8432   86.3584   15.1037 N.ar    1  UNL1       -0.1298
      4 N          64.5441   85.0637   14.4078 N.ar    1  UNL1       -0.1272
      5 C          63.6877   85.3661   13.2140 C.ar    1  UNL1        0.1864
      6 C          63.0877   84.4838   12.1598 C.ar    1  UNL1        0.0422
      7 C          62.2575   85.0832   11.0635 C.ar    1  UNL1        0.0241
      8 C          62.0274   86.5648   11.0216 C.ar    1  UNL1        0.1015
      9 N          62.6275   87.4471   12.0759 N.ar    1  UNL1       -0.1626
     10 N          63.4576   86.8478   13.1721 N.ar    1  UNL1       -0.1935
     11 C          61.1973   87.1641    9.9254 C.ar    1  UNL1        0.0194
     12 C          61.0414   88.6530    9.8312 C.ar    1  UNL1        0.0016
     13 C          60.2113   89.2523    8.7349 C.ar    1  UNL1        0.0000
     14 C          59.5371   88.3628    7.7329 C.ar    1  UNL1        0.0000
     15 C          59.6930   86.8739    7.8271 C.ar    1  UNL1        0.0000
     16 C          60.5231   86.2746    8.9233 C.ar    1  UNL1        0.0016
     17 N          64.4054   89.9412   13.6023 N.pl3   1  UNL1       -0.3264
     18 H          64.0383   89.7824   12.7027 H       1  UNL1        0.1472
     19 C          65.8778   94.1995   10.6108 C.ar    1  UNL1        0.1402
     20 C          65.1210   92.9371   10.3217 C.ar    1  UNL1        0.0370
     21 C          64.8824   91.9385   11.4152 C.ar    1  UNL1        0.0058
     22 C          65.4007   92.2022   12.7979 C.ar    1  UNL1        0.0310
     23 C          65.1622   91.2036   13.8914 C.ar    1  UNL1        0.0479
     24 C          65.6805   91.4673   15.2740 C.ar    1  UNL1        0.0350
     25 C          66.4374   92.7297   15.5632 C.ar    1  UNL1        0.1001
     26 N          66.6759   93.7283   14.4697 N.ar    1  UNL1       -0.2437
     27 C          66.1576   93.4646   13.0870 C.ar    1  UNL1        0.0855
     28 C          66.3961   94.4632   11.9934 C.ar    1  UNL1        0.0560
     29 C          67.3204   95.0681    8.6324 C.3     1  UNL1        0.2525
     30 O          66.1163   95.1981    9.5172 O.3     1  UNL1       -0.4714
@<TRIPOS>BOND
     1    29    30    1
     2    30    19    1
     3    19    20   ar
     4    20    21   ar
     5    21    22   ar
     6    22    23   ar
     7    23    17    1
     8    17     1    1
     9     1     2    1
    10     2     3   ar
    11     3     4   ar
    12     4     5   ar
    13     5     6   ar
    14     6     7   ar
    15     7     8   ar
    16     8    11    1
    17    11    12   ar
    18    12    13   ar
    19    13    14   ar
    20    14    15   ar
    21    15    16   ar
    22     8     9   ar
    23     9    10   ar
    24    23    24   ar
    25    24    25   ar
    26    25    26   ar
    27    26    27   ar
    28    27    28   ar
    29    28    19   ar
    30    27    22   ar
    31    10     2   ar
    32    10     5   ar
    33    16    11   ar
    34    17    18    1
@<TRIPOS>MOLECULE
*****
 30 34 0 0 0
SMALL
GASTEIGER

@<TRIPOS>ATOM
      1 C          64.3205   87.2632   14.6915 C.3     1  UNL1        0.1560
      2 C          64.1907   88.6163   14.0572 C.ar    1  UNL1        0.1834
      3 N          64.7237   89.9044   14.6109 N.ar    1  UNL1       -0.1298
      4 N          64.3675   91.0030   13.6537 N.ar    1  UNL1       -0.1272
      5 C          63.6144   90.3938   12.5083 C.ar    1  UNL1        0.1864
      6 C          63.0141   90.9916   11.2706 C.ar    1  UNL1        0.0422
      7 C          62.3044   90.1144   10.2822 C.ar    1  UNL1        0.0241
      8 C          62.1951   88.6393   10.5316 C.ar    1  UNL1        0.1015
      9 N          62.7955   88.0415   11.7694 N.ar    1  UNL1       -0.1626
     10 N          63.5052   88.9187   12.7577 N.ar    1  UNL1       -0.1935
     11 C          61.4855   87.7621    9.5432 C.ar    1  UNL1        0.0194
     12 C          62.1515   86.5203    9.0290 C.ar    1  UNL1        0.0016
     13 C          61.4417   85.6431    8.0406 C.ar    1  UNL1        0.0000
     14 C          60.0662   86.0077    7.5665 C.ar    1  UNL1        0.0000
     15 C          59.4003   87.2495    8.0807 C.ar    1  UNL1        0.0000
     16 C          60.1099   88.1267    9.0690 C.ar    1  UNL1        0.0016
     17 N          64.4936   86.0457   13.8326 N.pl3   1  UNL1       -0.3264
     18 H          65.1152   86.0659   13.0695 H       1  UNL1        0.1472
     19 C          63.2953   81.5944   11.0041 C.ar    1  UNL1        0.1402
     20 C          64.0694   82.8428   10.7003 C.ar    1  UNL1        0.0370
     21 C          64.2108   83.9104   11.7444 C.ar    1  UNL1        0.0058
     22 C          63.5781   83.7297   13.0923 C.ar    1  UNL1        0.0310
     23 C          63.7195   84.7973   14.1364 C.ar    1  UNL1        0.0479
     24 C          63.0868   84.6166   15.4844 C.ar    1  UNL1        0.0350
     25 C          62.3127   83.3681   15.7883 C.ar    1  UNL1        0.1001
     26 N          62.1713   82.3005   14.7442 N.ar    1  UNL1       -0.2437
     27 C          62.8040   82.4813   13.3961 C.ar    1  UNL1        0.0855
     28 C          62.6626   81.4137   12.3520 C.ar    1  UNL1        0.0560
     29 C          62.7804   79.1305   10.3608 C.3     1  UNL1        0.2525
     30 O          63.1539   80.5268    9.9600 O.3     1  UNL1       -0.4714
@<TRIPOS>BOND
     1    29    30    1
     2    30    19    1
     3    19    20   ar
     4    20    21   ar
     5    21    22   ar
     6    22    23   ar
     7    23    17    1
     8    17     1    1
     9     1     2    1
    10     2     3   ar
    11     3     4   ar
    12     4     5   ar
    13     5     6   ar
    14     6     7   ar
    15     7     8   ar
    16     8    11    1
    17    11    12   ar
    18    12    13   ar
    19    13    14   ar
    20    14    15   ar
    21    15    16   ar
    22     8     9   ar
    23     9    10   ar
    24    23    24   ar
    25    24    25   ar
    26    25    26   ar
    27    26    27   ar
    28    27    28   ar
    29    28    19   ar
    30    27    22   ar
    31    10     2   ar
    32    10     5   ar
    33    16    11   ar
    34    17    18    1
@<TRIPOS>MOLECULE
*****
 30 34 0 0 0
SMALL
GASTEIGER

@<TRIPOS>ATOM
      1 C          64.3618   88.4530   14.5860 C.3     1  UNL1        0.1560
      2 C          64.1290   86.9824   14.7682 C.ar    1  UNL1        0.1834
      3 N          64.3828   86.1981   16.0214 N.ar    1  UNL1       -0.1298
      4 N          64.0121   84.7689   15.7569 N.ar    1  UNL1       -0.1272
      5 C          63.5290   84.6699   14.3402 C.ar    1  UNL1        0.1864
      6 C          63.0328   83.5109   13.5277 C.ar    1  UNL1        0.0422
      7 C          62.6087   83.7198   12.1040 C.ar    1  UNL1        0.0241
      8 C          62.6810   85.0878   11.4931 C.ar    1  UNL1        0.1015
      9 N          63.1772   86.2469   12.3056 N.ar    1  UNL1       -0.1626
     10 N          63.6013   86.0379   13.7292 N.ar    1  UNL1       -0.1935
     11 C          62.2569   85.2968   10.0695 C.ar    1  UNL1        0.0194
     12 C          60.9918   86.0432    9.7657 C.ar    1  UNL1        0.0016
     13 C          60.5678   86.2521    8.3420 C.ar    1  UNL1        0.0000
     14 C          61.4088   85.7147    7.2224 C.ar    1  UNL1        0.0000
     15 C          62.6740   84.9682    7.5262 C.ar    1  UNL1        0.0000
     16 C          63.0980   84.7593    8.9498 C.ar    1  UNL1        0.0016
     17 N          63.2260   89.3487   14.1891 N.pl3   1  UNL1       -0.3264
     18 H          62.5046   89.5426   14.8304 H       1  UNL1        0.1472
     19 C          66.0250   93.2718   11.7345 C.ar    1  UNL1        0.1402
     20 C          66.0618   92.6715   13.1086 C.ar    1  UNL1        0.0370
     21 C          65.1165   91.5639   13.4688 C.ar    1  UNL1        0.0058
     22 C          64.1344   91.0566   12.4548 C.ar    1  UNL1        0.0310
     23 C          63.1892   89.9490   12.8150 C.ar    1  UNL1        0.0479
     24 C          62.2071   89.4418   11.8010 C.ar    1  UNL1        0.0350
     25 C          62.1702   90.0421   10.4268 C.ar    1  UNL1        0.1001
     26 N          63.1155   91.1497   10.0667 N.ar    1  UNL1       -0.2437
     27 C          64.0976   91.6570   11.0807 C.ar    1  UNL1        0.0855
     28 C          65.0429   92.7646   10.7206 C.ar    1  UNL1        0.0560
     29 C          67.0408   94.8752    9.9605 C.3     1  UNL1        0.2525
     30 O          66.9702   94.3794   11.3744 O.3     1  UNL1       -0.4714
@<TRIPOS>BOND
     1    29    30    1
     2    30    19    1
     3    19    20   ar
     4    20    21   ar
     5    21    22   ar
     6    22    23   ar
     7    23    17    1
     8    17     1    1
     9     1     2    1
    10     2     3   ar
    11     3     4   ar
    12     4     5   ar
    13     5     6   ar
    14     6     7   ar
    15     7     8   ar
    16     8    11    1
    17    11    12   ar
    18    12    13   ar
    19    13    14   ar
    20    14    15   ar
    21    15    16   ar
    22     8     9   ar
    23     9    10   ar
    24    23    24   ar
    25    24    25   ar
    26    25    26   ar
    27    26    27   ar
    28    27    28   ar
    29    28    19   ar
    30    27    22   ar
    31    10     2   ar
    32    10     5   ar
    33    16    11   ar
    34    17    18    1
@<TRIPOS>MOLECULE
*****
 30 34 0 0 0
SMALL
GASTEIGER

@<TRIPOS>ATOM
      1 C          64.3040   89.6628   15.0862 C.3     1  UNL1        0.1560
      2 C          64.4676   90.6664   13.9834 C.ar    1  UNL1        0.1834
      3 N          65.2465   91.9458   14.0639 N.ar    1  UNL1       -0.1298
      4 N          65.1413   92.6368   12.7368 N.ar    1  UNL1       -0.1272
      5 C          64.2974   91.7845   11.8359 C.ar    1  UNL1        0.1864
      6 C          63.8543   91.9599   10.4138 C.ar    1  UNL1        0.0422
      7 C          62.9948   90.9176    9.7619 C.ar    1  UNL1        0.0241
      8 C          62.5785   89.6998   10.5323 C.ar    1  UNL1        0.1015
      9 N          63.0216   89.5243   11.9546 N.ar    1  UNL1       -0.1626
     10 N          63.8810   90.5667   12.6064 N.ar    1  UNL1       -0.1935
     11 C          61.7191   88.6574    9.8806 C.ar    1  UNL1        0.0194
     12 C          62.0035   87.2021   10.1069 C.ar    1  UNL1        0.0016
     13 C          61.1440   86.1598    9.4550 C.ar    1  UNL1        0.0000
     14 C          60.0002   86.5727    8.5770 C.ar    1  UNL1        0.0000
     15 C          59.7158   88.0280    8.3506 C.ar    1  UNL1        0.0000
     16 C          60.5752   89.0703    9.0024 C.ar    1  UNL1        0.0016
     17 N          64.5070   88.2029   14.8079 N.pl3   1  UNL1       -0.3264
     18 H          65.1306   87.9186   14.1011 H       1  UNL1        0.1472
     19 C          63.3719   82.9683   14.0595 C.ar    1  UNL1        0.1402
     20 C          64.1190   83.9950   13.2610 C.ar    1  UNL1        0.0370
     21 C          64.2483   85.3976   13.7766 C.ar    1  UNL1        0.0058
     22 C          63.6306   85.7735   15.0907 C.ar    1  UNL1        0.0310
     23 C          63.7599   87.1762   15.6064 C.ar    1  UNL1        0.0479
     24 C          63.1422   87.5521   16.9205 C.ar    1  UNL1        0.0350
     25 C          62.3950   86.5253   17.7191 C.ar    1  UNL1        0.1001
     26 N          62.2657   85.1227   17.2035 N.ar    1  UNL1       -0.2437
     27 C          62.8835   84.7468   15.8892 C.ar    1  UNL1        0.0855
     28 C          62.7541   83.3442   15.3736 C.ar    1  UNL1        0.0560
     29 C          61.8922   80.9175   13.4638 C.3     1  UNL1        0.2525
     30 O          63.2425   81.5656   13.5438 O.3     1  UNL1       -0.4714
@<TRIPOS>BOND
     1    29    30    1
     2    30    19    1
     3    19    20   ar
     4    20    21   ar
     5    21    22   ar
     6    22    23   ar
     7    23    17    1
     8    17     1    1
     9     1     2    1
    10     2     3   ar
    11     3     4   ar
    12     4     5   ar
    13     5     6   ar
    14     6     7   ar
    15     7     8   ar
    16     8    11    1
    17    11    12   ar
    18    12    13   ar
    19    13    14   ar
    20    14    15   ar
    21    15    16   ar
    22     8     9   ar
    23     9    10   ar
    24    23    24   ar
    25    24    25   ar
    26    25    26   ar
    27    26    27   ar
    28    27    28   ar
    29    28    19   ar
    30    27    22   ar
    31    10     2   ar
    32    10     5   ar
    33    16    11   ar
    34    17    18    1
@<TRIPOS>MOLECULE
*****
 30 34 0 0 0
SMALL
GASTEIGER

@<TRIPOS>ATOM
      1 C          61.0591   90.0626   12.3532 C.3     1  UNL1        0.1560
      2 C          60.7354   89.4725   11.0126 C.ar    1  UNL1        0.1834
      3 N          59.9792   90.1519    9.9096 N.ar    1  UNL1       -0.1298
      4 N          59.8876   89.1987    8.7550 N.ar    1  UNL1       -0.1272
      5 C          60.5871   87.9302    9.1445 C.ar    1  UNL1        0.1864
      6 C          60.8147   86.6429    8.4090 C.ar    1  UNL1        0.0422
      7 C          61.5663   85.5248    9.0687 C.ar    1  UNL1        0.0241
      8 C          62.0902   85.6941   10.4639 C.ar    1  UNL1        0.1015
      9 N          61.8626   86.9814   11.1995 N.ar    1  UNL1       -0.1626
     10 N          61.1111   88.0995   10.5398 N.ar    1  UNL1       -0.1935
     11 C          62.8417   84.5761   11.1236 C.ar    1  UNL1        0.0194
     12 C          62.7514   84.3855   12.6087 C.ar    1  UNL1        0.0016
     13 C          63.5030   83.2674   13.2684 C.ar    1  UNL1        0.0000
     14 C          64.3448   82.3401   12.4430 C.ar    1  UNL1        0.0000
     15 C          64.4351   82.5307   10.9580 C.ar    1  UNL1        0.0000
     16 C          63.6835   83.6487   10.2983 C.ar    1  UNL1        0.0016
     17 N          62.4540   89.9692   12.8967 N.pl3   1  UNL1       -0.3264
     18 H          62.6713   89.2965   13.5819 H       1  UNL1        0.1472
     19 C          66.4305   92.7496   15.2857 C.ar    1  UNL1        0.1402
     20 C          65.3667   91.8181   15.7861 C.ar    1  UNL1        0.0370
     21 C          64.3958   91.2018   14.8230 C.ar    1  UNL1        0.0058
     22 C          64.4887   91.5171   13.3594 C.ar    1  UNL1        0.0310
     23 C          63.5178   90.9008   12.3963 C.ar    1  UNL1        0.0479
     24 C          63.6108   91.2161   10.9328 C.ar    1  UNL1        0.0350
     25 C          64.6746   92.1476   10.4323 C.ar    1  UNL1        0.1001
     26 N          65.6455   92.7639   11.3954 N.ar    1  UNL1       -0.2437
     27 C          65.5525   92.4486   12.8590 C.ar    1  UNL1        0.0855
     28 C          66.5234   93.0649   13.8221 C.ar    1  UNL1        0.0560
     29 C          68.8111   93.6437   15.8180 C.3     1  UNL1        0.2525
     30 O          67.4014   93.3659   16.2488 O.3     1  UNL1       -0.4714
@<TRIPOS>BOND
     1    29    30    1
     2    30    19    1
     3    19    20   ar
     4    20    21   ar
     5    21    22   ar
     6    22    23   ar
     7    23    17    1
     8    17     1    1
     9     1     2    1
    10     2     3   ar
    11     3     4   ar
    12     4     5   ar
    13     5     6   ar
    14     6     7   ar
    15     7     8   ar
    16     8    11    1
    17    11    12   ar
    18    12    13   ar
    19    13    14   ar
    20    14    15   ar
    21    15    16   ar
    22     8     9   ar
    23     9    10   ar
    24    23    24   ar
    25    24    25   ar
    26    25    26   ar
    27    26    27   ar
    28    27    28   ar
    29    28    19   ar
    30    27    22   ar
    31    10     2   ar
    32    10     5   ar
    33    16    11   ar
    34    17    18    1
@<TRIPOS>MOLECULE
*****
 30 34 0 0 0
SMALL
GASTEIGER

@<TRIPOS>ATOM
      1 C          63.6286   89.3080   15.7295 C.3     1  UNL1        0.1560
      2 C          63.2846   87.9910   16.3599 C.ar    1  UNL1        0.1834
      3 N          62.9796   87.7608   17.8103 N.ar    1  UNL1       -0.1298
      4 N          62.6917   86.3006   17.9973 N.ar    1  UNL1       -0.1272
      5 C          62.8187   85.6284   16.6624 C.ar    1  UNL1        0.1864
      6 C          62.6480   84.2000   16.2376 C.ar    1  UNL1        0.0422
      7 C          62.8438   83.8163   14.8007 C.ar    1  UNL1        0.0241
      8 C          63.2102   84.8611   13.7887 C.ar    1  UNL1        0.1015
      9 N          63.3809   86.2895   14.2135 N.ar    1  UNL1       -0.1626
     10 N          63.1851   86.6732   15.6504 N.ar    1  UNL1       -0.1935
     11 C          63.4060   84.4775   12.3519 C.ar    1  UNL1        0.0194
     12 C          64.2989   83.3253   11.9982 C.ar    1  UNL1        0.0016
     13 C          64.4946   82.9417   10.5613 C.ar    1  UNL1        0.0000
     14 C          63.7975   83.7102    9.4782 C.ar    1  UNL1        0.0000
     15 C          62.9045   84.8624    9.8319 C.ar    1  UNL1        0.0000
     16 C          62.7088   85.2460   11.2687 C.ar    1  UNL1        0.0016
     17 N          64.6002   89.3620   14.5879 N.pl3   1  UNL1       -0.3264
     18 H          65.5124   89.0094   14.7009 H       1  UNL1        0.1472
     19 C          66.1739   93.6907   11.7533 C.ar    1  UNL1        0.1402
     20 C          66.5921   93.0994   13.0668 C.ar    1  UNL1        0.0370
     21 C          65.9282   91.8536   13.5738 C.ar    1  UNL1        0.0058
     22 C          64.8460   91.1991   12.7674 C.ar    1  UNL1        0.0310
     23 C          64.1820   89.9533   13.2744 C.ar    1  UNL1        0.0479
     24 C          63.0998   89.2988   12.4679 C.ar    1  UNL1        0.0350
     25 C          62.6816   89.8901   11.1543 C.ar    1  UNL1        0.1001
     26 N          63.3455   91.1359   10.6473 N.ar    1  UNL1       -0.2437
     27 C          64.4278   91.7904   11.4538 C.ar    1  UNL1        0.0855
     28 C          65.0918   93.0362   10.9468 C.ar    1  UNL1        0.0560
     29 C          67.2551   95.0321    9.8086 C.3     1  UNL1        0.2525
     30 O          66.8379   94.9365   11.2462 O.3     1  UNL1       -0.4714
@<TRIPOS>BOND
     1    29    30    1
     2    30    19    1
     3    19    20   ar
     4    20    21   ar
     5    21    22   ar
     6    22    23   ar
     7    23    17    1
     8    17     1    1
     9     1     2    1
    10     2     3   ar
    11     3     4   ar
    12     4     5   ar
    13     5     6   ar
    14     6     7   ar
    15     7     8   ar
    16     8    11    1
    17    11    12   ar
    18    12    13   ar
    19    13    14   ar
    20    14    15   ar
    21    15    16   ar
    22     8     9   ar
    23     9    10   ar
    24    23    24   ar
    25    24    25   ar
    26    25    26   ar
    27    26    27   ar
    28    27    28   ar
    29    28    19   ar
    30    27    22   ar
    31    10     2   ar
    32    10     5   ar
    33    16    11   ar
    34    17    18    1
