@<TRIPOS>MOLECULE
*****
 37 40 0 0 0
SMALL
GASTEIGER

@<TRIPOS>ATOM
      1 N          65.0301   91.9768   12.6696 N.am    1  LEU1       -0.2602
      2 C          64.1823   91.2406   11.6751 C.2     2  UNK2        0.2444
      3 O          64.4038   91.4428   10.2053 O.2     2  UNK2       -0.2731
      4 C          63.1129   90.3021   12.1502 C.3     2  UNK2        0.1494
      5 N          62.8915   90.0999   13.6199 N.am    2  UNK2       -0.2970
      6 C          63.7393   90.8362   14.6144 C.2     1  LEU1        0.2409
      7 O          63.5178   90.6339   16.0842 O.2     1  LEU1       -0.2733
      8 CA         64.8087   91.7746   14.1393 C.3     1  LEU1        0.1524
      9 H          62.1896   89.4840   13.9318 H       2  UNK2        0.1499
     10 C          62.2651   89.5659   11.1557 C.3     2  UNK2        0.0356
     11 C          61.3444   90.1896   10.1490 C.3     2  UNK2        0.0285
     12 C          60.6993   89.0859    9.3644 C.ar    2  UNK2       -0.0261
     13 C          59.7041   89.1012    8.2423 C.ar    2  UNK2       -0.0046
     14 C          59.2308   87.8107    7.6419 C.ar    2  UNK2       -0.0003
     15 C          59.7527   86.5048    8.1637 C.ar    2  UNK2       -0.0003
     16 C          60.7480   86.4895    9.2858 C.ar    2  UNK2       -0.0046
     17 C          61.2213   87.7800    9.8862 C.ar    2  UNK2       -0.0261
     18 C          62.1889   88.0767   10.9933 C.3     2  UNK2        0.0285
     19 C          66.0995   92.9153   12.1943 C.3     0  UNK0        0.1962
     20 C          69.2145   91.8631    8.0627 C.3     0  UNK0        0.0950
     21 C          68.6632   91.9161    9.4567 C.ar    0  UNK0        0.2061
     22 N          67.3952   92.5978    9.8780 N.ar    0  UNK0       -0.2142
     23 C          67.2313   92.3997   11.3558 C.ar    0  UNK0        0.1263
     24 C          68.3980   91.5955   11.8478 C.ar    0  UNK0        0.1979
     25 O          69.2829   91.2966   10.6741 O.2     0  UNK0       -0.4355
     26 C          66.0370   94.3693   12.5576 C.2     0  UNK0        0.2499
     27 O          66.1702   94.7905   13.9911 O.2     0  UNK0       -0.2727
     28 N          65.8414   95.4020   11.4875 N.am    0  UNK0       -0.2736
     29 C          65.7789   96.8560   11.8508 C.3     0  UNK0        0.1150
     30 C          65.7082   94.9807   10.0540 C.3     0  UNK0        0.1252
     31 C          66.4612   95.7139    8.9838 C.3     0  UNK0        0.1586
     32 O          67.9258   95.4569    8.7871 O.3     0  UNK0       -0.3802
     33 H          68.4152   95.7613    9.5673 H       0  UNK0        0.2105
     34 CB         65.6565   92.5109   15.1338 C.3     1  LEU1        0.0292
     35 CG         67.0582   92.0530   15.4090 C.3     1  LEU1        0.0021
     36 CD1        67.4934   90.6788   14.9940 C.3     1  LEU1        0.0001
     37 CD2        68.0246   92.9693   16.0993 C.3     1  LEU1        0.0001
@<TRIPOS>BOND
     1    20    21    1
     2    21    22   ar
     3    22    23   ar
     4    23    19    1
     5    19    26    1
     6    26    27    2
     7    26    28   am
     8    28    29    1
     9    28    30    1
    10    30    31    1
    11    31    32    1
    12    19     1    1
    13     1     2   am
    14     2     3    2
    15     2     4    1
    16     4    10    1
    17    10    11    1
    18    11    12    1
    19    12    13   ar
    20    13    14   ar
    21    14    15   ar
    22    15    16   ar
    23    16    17   ar
    24    17    18    1
    25     4     5    1
    26     5     6   am
    27     6     7    2
    28     6     8    1
    29     8    34    1
    30    34    35    1
    31    35    36    1
    32    35    37    1
    33    23    24   ar
    34    24    25   ar
    35    25    21   ar
    36     8     1    1
    37    18    10    1
    38    17    12   ar
    39    32    33    1
    40     5     9    1
@<TRIPOS>MOLECULE
*****
 37 40 0 0 0
SMALL
GASTEIGER

@<TRIPOS>ATOM
      1 N          71.6450   73.4421   14.3042 N.am    1  LEU1       -0.2602
      2 C          72.0919   74.6731   13.5728 C.2     2  UNK2        0.2444
      3 O          73.1799   74.5809   12.5442 O.2     2  UNK2       -0.2731
      4 C          71.4509   75.9962   13.8699 C.3     2  UNK2        0.1494
      5 N          70.3629   76.0883   14.8984 N.am    2  UNK2       -0.2970
      6 C          69.9160   74.8574   15.6298 C.2     1  LEU1        0.2409
      7 O          68.8280   74.9496   16.6583 O.2     1  LEU1       -0.2733
      8 CA         70.5570   73.5342   15.3327 C.3     1  LEU1        0.1524
      9 H          69.9422   76.9568   15.0934 H       2  UNK2        0.1499
     10 C          71.8978   77.2272   13.1385 C.3     2  UNK2        0.0356
     11 C          71.7220   77.4947   11.6731 C.3     2  UNK2        0.0285
     12 C          72.3145   78.8397   11.3731 C.ar    2  UNK2       -0.0261
     13 C          72.4305   79.6239   10.0997 C.ar    2  UNK2       -0.0046
     14 C          73.0886   80.9718   10.1063 C.ar    2  UNK2       -0.0003
     15 C          73.6306   81.5355   11.3863 C.ar    2  UNK2       -0.0003
     16 C          73.5146   80.7513   12.6597 C.ar    2  UNK2       -0.0046
     17 C          72.8565   79.4034   12.6531 C.ar    2  UNK2       -0.0261
     18 C          72.5990   78.4068   13.7442 C.3     2  UNK2        0.0285
     19 C          72.2860   72.1189   14.0070 C.3     0  UNK0        0.1962
     20 C          70.7167   70.6198    9.1934 C.3     0  UNK0        0.0950
     21 C          71.5750   70.8998   10.3912 C.ar    0  UNK0        0.2061
     22 N          71.1095   71.4821   11.6928 N.ar    0  UNK0       -0.2142
     23 C          72.2964   71.5888   12.6038 C.ar    0  UNK0        0.1263
     24 C          73.4955   71.0724   11.8652 C.ar    0  UNK0        0.1979
     25 O          73.0497   70.6465   10.4977 O.2     0  UNK0       -0.4355
     26 C          72.9167   71.3258   15.1130 C.2     0  UNK0        0.2499
     27 O          73.6325   72.0302   16.2271 O.2     0  UNK0       -0.2727
     28 N          72.8316   69.8282   15.1048 N.am    0  UNK0       -0.2736
     29 C          73.4622   69.0351   16.2108 C.3     0  UNK0        0.1150
     30 C          72.1158   69.1237   13.9906 C.3     0  UNK0        0.1252
     31 C          70.6808   68.7203   14.1579 C.3     0  UNK0        0.1586
     32 O          69.7426   68.7845   12.9892 O.3     0  UNK0       -0.3802
     33 H          69.6212   69.7091   12.7224 H       0  UNK0        0.2105
     34 CB         70.1101   72.3032   16.0640 C.3     1  LEU1        0.0292
     35 CG         70.6028   72.0372   17.4556 C.3     1  LEU1        0.0021
     36 CD1        70.6966   70.6282   17.9614 C.3     1  LEU1        0.0001
     37 CD2        71.0017   73.1802   18.3413 C.3     1  LEU1        0.0001
@<TRIPOS>BOND
     1    20    21    1
     2    21    22   ar
     3    22    23   ar
     4    23    19    1
     5    19    26    1
     6    26    27    2
     7    26    28   am
     8    28    29    1
     9    28    30    1
    10    30    31    1
    11    31    32    1
    12    19     1    1
    13     1     2   am
    14     2     3    2
    15     2     4    1
    16     4    10    1
    17    10    11    1
    18    11    12    1
    19    12    13   ar
    20    13    14   ar
    21    14    15   ar
    22    15    16   ar
    23    16    17   ar
    24    17    18    1
    25     4     5    1
    26     5     6   am
    27     6     7    2
    28     6     8    1
    29     8    34    1
    30    34    35    1
    31    35    36    1
    32    35    37    1
    33    23    24   ar
    34    24    25   ar
    35    25    21   ar
    36     8     1    1
    37    18    10    1
    38    17    12   ar
    39    32    33    1
    40     5     9    1
@<TRIPOS>MOLECULE
*****
 37 40 0 0 0
SMALL
GASTEIGER

@<TRIPOS>ATOM
      1 N          62.7480   86.5379   12.1464 N.am    1  LEU1       -0.2602
      2 C          63.5244   87.6067   12.8570 C.2     2  UNK2        0.2444
      3 O          64.3423   87.2613   14.0661 O.2     2  UNK2       -0.2731
      4 C          63.4828   89.0208   12.3587 C.3     2  UNK2        0.1494
      5 N          62.6650   89.3662   11.1497 N.am    2  UNK2       -0.2970
      6 C          61.8886   88.2974   10.4390 C.2     1  LEU1        0.2409
      7 O          61.0707   88.6429    9.2300 O.2     1  LEU1       -0.2733
      8 CA         61.9301   86.8833   10.9374 C.3     1  LEU1        0.1524
      9 H          62.6377   90.2944   10.8226 H       2  UNK2        0.1499
     10 C          64.2592   90.0896   13.0693 C.3     2  UNK2        0.0356
     11 C          64.9208   91.2731   12.4277 C.3     2  UNK2        0.0285
     12 C          65.5807   92.0775   13.5082 C.ar    2  UNK2       -0.0261
     13 C          66.3799   93.3462   13.4689 C.ar    2  UNK2       -0.0046
     14 C          66.9254   93.9286   14.7390 C.ar    2  UNK2       -0.0003
     15 C          66.6717   93.2423   16.0484 C.ar    2  UNK2       -0.0003
     16 C          65.8725   91.9735   16.0877 C.ar    2  UNK2       -0.0046
     17 C          65.3270   91.3911   14.8176 C.ar    2  UNK2       -0.0261
     18 C          64.5103   90.1626   14.5463 C.3     2  UNK2        0.0285
     19 C          62.7896   85.1237   12.6449 C.3     0  UNK0        0.1962
     20 C          63.0910   80.4746   10.1597 C.3     0  UNK0        0.0950
     21 C          63.3754   81.8830   10.5906 C.ar    0  UNK0        0.2061
     22 N          62.6103   82.6618   11.6192 N.ar    0  UNK0       -0.2142
     23 C          63.2368   84.0199   11.7329 C.ar    0  UNK0        0.1263
     24 C          64.3891   84.0805   10.7745 C.ar    0  UNK0        0.1979
     25 O          64.4748   82.7598   10.0685 O.2     0  UNK0       -0.4355
     26 C          62.3839   84.8133   14.0552 C.2     0  UNK0        0.2499
     27 O          60.9850   85.1010   14.5138 O.2     0  UNK0       -0.2727
     28 N          63.3772   84.2153   15.0070 N.am    0  UNK0       -0.2736
     29 C          62.9715   83.9049   16.4173 C.3     0  UNK0        0.1150
     30 C          64.7761   83.9277   14.5484 C.3     0  UNK0        0.1252
     31 C          65.8164   85.0074   14.5914 C.3     0  UNK0        0.1586
     32 O          67.2723   84.6464   14.5952 O.3     0  UNK0       -0.3802
     33 H          67.4877   84.1806   15.4183 H       0  UNK0        0.2105
     34 CB         61.1538   85.8145   10.2268 C.3     1  LEU1        0.0292
     35 CG         61.2656   85.6706    8.7379 C.3     1  LEU1        0.0021
     36 CD1        62.5808   85.3048    8.1164 C.3     1  LEU1        0.0001
     37 CD2        60.0621   85.8926    7.8705 C.3     1  LEU1        0.0001
@<TRIPOS>BOND
     1    20    21    1
     2    21    22   ar
     3    22    23   ar
     4    23    19    1
     5    19    26    1
     6    26    27    2
     7    26    28   am
     8    28    29    1
     9    28    30    1
    10    30    31    1
    11    31    32    1
    12    19     1    1
    13     1     2   am
    14     2     3    2
    15     2     4    1
    16     4    10    1
    17    10    11    1
    18    11    12    1
    19    12    13   ar
    20    13    14   ar
    21    14    15   ar
    22    15    16   ar
    23    16    17   ar
    24    17    18    1
    25     4     5    1
    26     5     6   am
    27     6     7    2
    28     6     8    1
    29     8    34    1
    30    34    35    1
    31    35    36    1
    32    35    37    1
    33    23    24   ar
    34    24    25   ar
    35    25    21   ar
    36     8     1    1
    37    18    10    1
    38    17    12   ar
    39    32    33    1
    40     5     9    1
@<TRIPOS>MOLECULE
*****
 37 40 0 0 0
SMALL
GASTEIGER

@<TRIPOS>ATOM
      1 N          63.5396   90.0165   12.5359 N.am    1  LEU1       -0.2602
      2 C          64.0358   91.0704   11.5908 C.2     2  UNK2        0.2444
      3 O          63.3184   91.3147   10.2963 O.2     2  UNK2       -0.2731
      4 C          65.2493   91.8798   11.9401 C.3     2  UNK2        0.1494
      5 N          65.9667   91.6354   13.2346 N.am    2  UNK2       -0.2970
      6 C          65.4705   90.5816   14.1797 C.2     1  LEU1        0.2409
      7 O          66.1880   90.3373   15.4742 O.2     1  LEU1       -0.2733
      8 CA         64.2570   89.7722   13.8304 C.3     1  LEU1        0.1524
      9 H          66.7632   92.1667   13.4638 H       2  UNK2        0.1499
     10 C          65.7455   92.9336   10.9950 C.3     2  UNK2        0.0356
     11 C          65.1821   94.3151   10.8403 C.3     2  UNK2        0.0285
     12 C          65.9806   95.0263    9.7883 C.ar    2  UNK2       -0.0261
     13 C          65.8818   96.4099    9.2175 C.ar    2  UNK2       -0.0046
     14 C          66.8399   96.8516    8.1513 C.ar    2  UNK2       -0.0003
     15 C          67.8969   95.9096    7.6559 C.ar    2  UNK2       -0.0003
     16 C          67.9957   94.5260    8.2267 C.ar    2  UNK2       -0.0046
     17 C          67.0376   94.0843    9.2929 C.ar    2  UNK2       -0.0261
     18 C          66.8923   92.7910   10.0386 C.3     2  UNK2        0.0285
     19 C          62.3260   89.2071   12.1866 C.3     0  UNK0        0.1962
     20 C          63.0279   84.0047   11.6179 C.3     0  UNK0        0.0950
     21 C          62.8053   85.4561   11.3114 C.ar    0  UNK0        0.2061
     22 N          62.7068   86.5645   12.3172 N.ar    0  UNK0       -0.2142
     23 C          62.4826   87.8474   11.5729 C.ar    0  UNK0        0.1263
     24 C          62.4426   87.5317   10.1070 C.ar    0  UNK0        0.1979
     25 O          62.6420   86.0538    9.9454 O.2     0  UNK0       -0.4355
     26 C          60.9559   89.7573   12.4509 C.2     0  UNK0        0.2499
     27 O          60.4151   89.7831   13.8498 O.2     0  UNK0       -0.2727
     28 N          60.1265   90.2818   11.3164 N.am    0  UNK0       -0.2736
     29 C          58.7564   90.8321   11.5807 C.3     0  UNK0        0.1150
     30 C          60.6673   90.2560    9.9175 C.3     0  UNK0        0.1252
     31 C          60.0354   89.3700    8.8853 C.3     0  UNK0        0.1586
     32 O          59.8548   89.8651    7.4810 O.3     0  UNK0       -0.3802
     33 H          59.2200   90.5986    7.4758 H       0  UNK0        0.2105
     34 CB         63.7608   88.7183   14.7755 C.3     1  LEU1        0.0292
     35 CG         63.3094   89.0998   16.1541 C.3     1  LEU1        0.0021
     36 CD1        63.0248   88.0350   17.1716 C.3     1  LEU1        0.0001
     37 CD2        63.1426   90.5461   16.5154 C.3     1  LEU1        0.0001
@<TRIPOS>BOND
     1    20    21    1
     2    21    22   ar
     3    22    23   ar
     4    23    19    1
     5    19    26    1
     6    26    27    2
     7    26    28   am
     8    28    29    1
     9    28    30    1
    10    30    31    1
    11    31    32    1
    12    19     1    1
    13     1     2   am
    14     2     3    2
    15     2     4    1
    16     4    10    1
    17    10    11    1
    18    11    12    1
    19    12    13   ar
    20    13    14   ar
    21    14    15   ar
    22    15    16   ar
    23    16    17   ar
    24    17    18    1
    25     4     5    1
    26     5     6   am
    27     6     7    2
    28     6     8    1
    29     8    34    1
    30    34    35    1
    31    35    36    1
    32    35    37    1
    33    23    24   ar
    34    24    25   ar
    35    25    21   ar
    36     8     1    1
    37    18    10    1
    38    17    12   ar
    39    32    33    1
    40     5     9    1
@<TRIPOS>MOLECULE
*****
 37 40 0 0 0
SMALL
GASTEIGER

@<TRIPOS>ATOM
      1 N          63.0535   90.1525   12.5945 N.am    1  LEU1       -0.2602
      2 C          63.7555   91.1168   11.6849 C.2     2  UNK2        0.2444
      3 O          63.4638   91.1079   10.2135 O.2     2  UNK2       -0.2731
      4 C          64.7492   92.0899   12.2467 C.3     2  UNK2        0.1494
      5 N          65.0408   92.0987   13.7180 N.am    2  UNK2       -0.2970
      6 C          64.3388   91.1344   14.6276 C.2     1  LEU1        0.2409
      7 O          64.6305   91.1432   16.0990 O.2     1  LEU1       -0.2733
      8 CA         63.3451   90.1613   14.0658 C.3     1  LEU1        0.1524
      9 H          65.6930   92.7374   14.0867 H       2  UNK2        0.1499
     10 C          65.4512   93.0542   11.3371 C.3     2  UNK2        0.0356
     11 C          65.4668   94.5474   11.4783 C.3     2  UNK2        0.0285
     12 C          66.2861   95.1107   10.3551 C.ar    2  UNK2       -0.0261
     13 C          66.6487   96.5184    9.9851 C.ar    2  UNK2       -0.0046
     14 C          67.5020   96.7809    8.7798 C.ar    2  UNK2       -0.0003
     15 C          67.9928   95.6357    7.9445 C.ar    2  UNK2       -0.0003
     16 C          67.6303   94.2280    8.3145 C.ar    2  UNK2       -0.0046
     17 C          66.7769   93.9655    9.5198 C.ar    2  UNK2       -0.0261
     18 C          66.2609   92.6945   10.1268 C.3     2  UNK2        0.0285
     19 C          62.0597   89.1793   12.0326 C.3     0  UNK0        0.1962
     20 C          56.8850   88.7313   12.9824 C.3     0  UNK0        0.0950
     21 C          58.2133   89.2730   12.5441 C.ar    0  UNK0        0.2061
     22 N          59.5353   88.5759   12.6715 N.ar    0  UNK0       -0.2142
     23 C          60.5919   89.4790   12.1075 C.ar    0  UNK0        0.1263
     24 C          59.9228   90.7343   11.6316 C.ar    0  UNK0        0.1979
     25 O          58.4528   90.6070   11.9014 O.2     0  UNK0       -0.4355
     26 C          62.5339   87.9067   11.3960 C.2     0  UNK0        0.2499
     27 O          63.3758   86.9441   12.1800 O.2     0  UNK0       -0.2727
     28 N          62.1662   87.5965    9.9751 N.am    0  UNK0       -0.2736
     29 C          62.6403   86.3238    9.3385 C.3     0  UNK0        0.1150
     30 C          61.3243   88.5590    9.1911 C.3     0  UNK0        0.1252
     31 C          59.9354   88.1742    8.7752 C.3     0  UNK0        0.1586
     32 O          59.7278   87.2912    7.5805 O.3     0  UNK0       -0.3802
     33 H          60.0135   87.7582    6.7798 H       0  UNK0        0.2105
     34 CB         62.6431   89.1970   14.9753 C.3     1  LEU1        0.0292
     35 CG         63.4300   88.1589   15.7190 C.3     1  LEU1        0.0021
     36 CD1        64.5520   87.4357   15.0350 C.3     1  LEU1        0.0001
     37 CD2        63.0948   87.8440   17.1468 C.3     1  LEU1        0.0001
@<TRIPOS>BOND
     1    20    21    1
     2    21    22   ar
     3    22    23   ar
     4    23    19    1
     5    19    26    1
     6    26    27    2
     7    26    28   am
     8    28    29    1
     9    28    30    1
    10    30    31    1
    11    31    32    1
    12    19     1    1
    13     1     2   am
    14     2     3    2
    15     2     4    1
    16     4    10    1
    17    10    11    1
    18    11    12    1
    19    12    13   ar
    20    13    14   ar
    21    14    15   ar
    22    15    16   ar
    23    16    17   ar
    24    17    18    1
    25     4     5    1
    26     5     6   am
    27     6     7    2
    28     6     8    1
    29     8    34    1
    30    34    35    1
    31    35    36    1
    32    35    37    1
    33    23    24   ar
    34    24    25   ar
    35    25    21   ar
    36     8     1    1
    37    18    10    1
    38    17    12   ar
    39    32    33    1
    40     5     9    1
@<TRIPOS>MOLECULE
*****
 37 40 0 0 0
SMALL
GASTEIGER

@<TRIPOS>ATOM
      1 N          62.9879   86.2294   12.9354 N.am    1  LEU1       -0.2602
      2 C          63.5517   87.6123   12.7953 C.2     2  UNK2        0.2444
      3 O          63.6094   88.2656   11.4462 O.2     2  UNK2       -0.2731
      4 C          64.0579   88.3419   14.0042 C.3     2  UNK2        0.1494
      5 N          64.0002   87.6886   15.3532 N.am    2  UNK2       -0.2970
      6 C          63.4363   86.3057   15.4933 C.2     1  LEU1        0.2409
      7 O          63.3787   85.6524   16.8424 O.2     1  LEU1       -0.2733
      8 CA         62.9302   85.5761   14.2844 C.3     1  LEU1        0.1524
      9 H          64.3325   88.1675   16.1466 H       2  UNK2        0.1499
     10 C          64.6218   89.7248   13.8641 C.3     2  UNK2        0.0356
     11 C          64.5177   90.6007   12.6508 C.3     2  UNK2        0.0285
     12 C          65.2204   91.8919   12.9495 C.ar    2  UNK2       -0.0261
     13 C          65.4395   93.1284   12.1292 C.ar    2  UNK2       -0.0046
     14 C          66.1970   94.2870   12.7068 C.ar    2  UNK2       -0.0003
     15 C          66.7354   94.2091   14.1047 C.ar    2  UNK2       -0.0003
     16 C          66.5163   92.9726   14.9250 C.ar    2  UNK2       -0.0046
     17 C          65.7587   91.8140   14.3474 C.ar    2  UNK2       -0.0261
     18 C          65.3888   90.4747   14.9126 C.3     2  UNK2        0.0285
     19 C          62.4817   85.4998   11.7265 C.3     0  UNK0        0.1962
     20 C          62.9134   80.3727   10.5401 C.3     0  UNK0        0.0950
     21 C          63.2556   81.8069   10.8161 C.ar    0  UNK0        0.2061
     22 N          62.2837   82.8921   11.1734 N.ar    0  UNK0       -0.2142
     23 C          63.0571   84.1636   11.3614 C.ar    0  UNK0        0.1263
     24 C          64.5070   83.8641   11.1202 C.ar    0  UNK0        0.1979
     25 O          64.6296   82.4076   10.7832 O.2     0  UNK0       -0.4355
     26 C          61.4001   86.1065   10.8826 C.2     0  UNK0        0.2499
     27 O          60.2893   86.8799   11.5292 O.2     0  UNK0       -0.2727
     28 N          61.4292   85.9398    9.3922 N.am    0  UNK0       -0.2736
     29 C          60.3476   86.5464    8.5483 C.3     0  UNK0        0.1150
     30 C          62.5400   85.1663    8.7456 C.3     0  UNK0        0.1252
     31 C          62.6567   85.1291    7.2506 C.3     0  UNK0        0.1586
     32 O          61.6370   84.3887    6.4369 O.3     0  UNK0       -0.3802
     33 H          61.6979   83.4397    6.6281 H       0  UNK0        0.2105
     34 CB         62.3663   84.1932   14.4245 C.3     1  LEU1        0.0292
     35 CG         63.2878   83.0132   14.5151 C.3     1  LEU1        0.0021
     36 CD1        62.7359   81.6216   14.4204 C.3     1  LEU1        0.0001
     37 CD2        64.7612   83.2246   14.7005 C.3     1  LEU1        0.0001
@<TRIPOS>BOND
     1    20    21    1
     2    21    22   ar
     3    22    23   ar
     4    23    19    1
     5    19    26    1
     6    26    27    2
     7    26    28   am
     8    28    29    1
     9    28    30    1
    10    30    31    1
    11    31    32    1
    12    19     1    1
    13     1     2   am
    14     2     3    2
    15     2     4    1
    16     4    10    1
    17    10    11    1
    18    11    12    1
    19    12    13   ar
    20    13    14   ar
    21    14    15   ar
    22    15    16   ar
    23    16    17   ar
    24    17    18    1
    25     4     5    1
    26     5     6   am
    27     6     7    2
    28     6     8    1
    29     8    34    1
    30    34    35    1
    31    35    36    1
    32    35    37    1
    33    23    24   ar
    34    24    25   ar
    35    25    21   ar
    36     8     1    1
    37    18    10    1
    38    17    12   ar
    39    32    33    1
    40     5     9    1
@<TRIPOS>MOLECULE
*****
 37 40 0 0 0
SMALL
GASTEIGER

@<TRIPOS>ATOM
      1 N          61.8796   87.8136   11.2581 N.am    1  LEU1       -0.2602
      2 C          62.9254   88.5586   12.0335 C.2     2  UNK2        0.2444
      3 O          64.1549   87.8448   12.5121 O.2     2  UNK2       -0.2731
      4 C          62.7419   90.0174   12.3304 C.3     2  UNK2        0.1494
      5 N          61.5125   90.7312   11.8518 N.am    2  UNK2       -0.2970
      6 C          60.4667   89.9862   11.0764 C.2     1  LEU1        0.2409
      7 O          59.2372   90.7001   10.5978 O.2     1  LEU1       -0.2733
      8 CA         60.6503   88.5274   10.7796 C.3     1  LEU1        0.1524
      9 H          61.3920   91.6887   12.0466 H       2  UNK2        0.1499
     10 C          63.7877   90.7624   13.1058 C.3     2  UNK2        0.0356
     11 C          64.8715   91.6211   12.5245 C.3     2  UNK2        0.0285
     12 C          65.6870   92.1690   13.6581 C.ar    2  UNK2       -0.0261
     13 C          66.8826   93.0742   13.6887 C.ar    2  UNK2       -0.0046
     14 C          67.4983   93.4593   15.0011 C.ar    2  UNK2       -0.0003
     15 C          66.9183   92.9392   16.2830 C.ar    2  UNK2       -0.0003
     16 C          65.7227   92.0340   16.2524 C.ar    2  UNK2       -0.0046
     17 C          65.1070   91.6489   14.9400 C.ar    2  UNK2       -0.0261
     18 C          63.9332   90.7796   14.5986 C.3     2  UNK2        0.0285
     19 C          62.0633   86.3547   10.9613 C.3     0  UNK0        0.1962
     20 C          61.1402   84.2359    6.2137 C.3     0  UNK0        0.0950
     21 C          61.8191   84.9205    7.3628 C.ar    0  UNK0        0.2061
     22 N          61.2143   85.1942    8.7080 N.ar    0  UNK0       -0.2142
     23 C          62.2434   85.8944    9.5451 C.ar    0  UNK0        0.1263
     24 C          63.4841   86.0535    8.7173 C.ar    0  UNK0        0.1979
     25 O          63.2219   85.4516    7.3686 O.2     0  UNK0       -0.4355
     26 C          62.0668   85.3563   12.0807 C.2     0  UNK0        0.2499
     27 O          61.2731   85.6222   13.3254 O.2     0  UNK0       -0.2727
     28 N          62.8641   84.0918   11.9553 N.am    0  UNK0       -0.2736
     29 C          62.8676   83.0934   13.0747 C.3     0  UNK0        0.1150
     30 C          63.6578   83.8260   10.7106 C.3     0  UNK0        0.1252
     31 C          64.1618   82.4426   10.4237 C.3     0  UNK0        0.1586
     32 O          63.2066   81.2864   10.3995 O.3     0  UNK0       -0.3802
     33 H          62.8458   81.1464   11.2890 H       0  UNK0        0.2105
     34 CB         59.6045   87.7824   10.0041 C.3     1  LEU1        0.0292
     35 CG         59.4890   87.9776    8.5214 C.3     1  LEU1        0.0021
     36 CD1        58.7612   86.9663    7.6862 C.3     1  LEU1        0.0001
     37 CD2        60.1014   89.1842    7.8739 C.3     1  LEU1        0.0001
@<TRIPOS>BOND
     1    20    21    1
     2    21    22   ar
     3    22    23   ar
     4    23    19    1
     5    19    26    1
     6    26    27    2
     7    26    28   am
     8    28    29    1
     9    28    30    1
    10    30    31    1
    11    31    32    1
    12    19     1    1
    13     1     2   am
    14     2     3    2
    15     2     4    1
    16     4    10    1
    17    10    11    1
    18    11    12    1
    19    12    13   ar
    20    13    14   ar
    21    14    15   ar
    22    15    16   ar
    23    16    17   ar
    24    17    18    1
    25     4     5    1
    26     5     6   am
    27     6     7    2
    28     6     8    1
    29     8    34    1
    30    34    35    1
    31    35    36    1
    32    35    37    1
    33    23    24   ar
    34    24    25   ar
    35    25    21   ar
    36     8     1    1
    37    18    10    1
    38    17    12   ar
    39    32    33    1
    40     5     9    1
@<TRIPOS>MOLECULE
*****
 37 40 0 0 0
SMALL
GASTEIGER

@<TRIPOS>ATOM
      1 N          64.5602   91.6255   12.7126 N.am    1  LEU1       -0.2602
      2 C          63.6658   90.5887   12.1003 C.2     2  UNK2        0.2444
      3 O          63.2164   89.4110   12.9136 O.2     2  UNK2       -0.2731
      4 C          63.2208   90.7294   10.6748 C.3     2  UNK2        0.1494
      5 N          63.6702   91.9069    9.8616 N.am    2  UNK2       -0.2970
      6 C          64.5646   92.9438   10.4739 C.2     1  LEU1        0.2409
      7 O          65.0140   94.1214    9.6607 O.2     1  LEU1       -0.2733
      8 CA         65.0096   92.8031   11.8994 C.3     1  LEU1        0.1524
      9 H          63.3781   91.9993    8.9260 H       2  UNK2        0.1499
     10 C          62.3263   89.6925   10.0625 C.3     2  UNK2        0.0356
     11 C          60.9679   89.9358    9.4748 C.3     2  UNK2        0.0285
     12 C          60.4353   88.6240    8.9795 C.ar    2  UNK2       -0.0261
     13 C          59.1461   88.2531    8.3084 C.ar    2  UNK2       -0.0046
     14 C          58.8862   86.8281    7.9189 C.ar    2  UNK2       -0.0003
     15 C          59.9155   85.7740    8.2005 C.ar    2  UNK2       -0.0003
     16 C          61.2047   86.1448    8.8715 C.ar    2  UNK2       -0.0046
     17 C          61.4646   87.5698    9.2610 C.ar    2  UNK2       -0.0261
     18 C          62.6333   88.2302    9.9303 C.3     2  UNK2        0.0285
     19 C          65.0052   91.4848   14.1382 C.3     0  UNK0        0.1962
     20 C          69.0879   93.9731   16.3790 C.3     0  UNK0        0.0950
     21 C          68.2780   93.0126   15.5594 C.ar    0  UNK0        0.2061
     22 N          66.7821   92.9888   15.4518 N.ar    0  UNK0       -0.2142
     23 C          66.4014   91.8689   14.5295 C.ar    0  UNK0        0.1263
     24 C          67.6621   91.2005   14.0670 C.ar    0  UNK0        0.1979
     25 O          68.8220   91.9074   14.7036 O.2     0  UNK0       -0.4355
     26 C          64.0540   90.9599   15.1725 C.2     0  UNK0        0.2499
     27 O          63.1724   91.9077   15.9304 O.2     0  UNK0       -0.2727
     28 N          63.9845   89.4872   15.4489 N.am    0  UNK0       -0.2736
     29 C          63.0333   88.9623   16.4832 C.3     0  UNK0        0.1150
     30 C          64.8661   88.5394   14.6910 C.3     0  UNK0        0.1252
     31 C          64.5740   87.0682   14.7066 C.3     0  UNK0        0.1586
     32 O          63.6247   86.4815   13.7043 O.3     0  UNK0       -0.3802
     33 H          62.7321   86.8259   13.8641 H       0  UNK0        0.2105
     34 CB         65.9040   93.8399   12.5118 C.3     1  LEU1        0.0292
     35 CG         66.5095   94.9100   11.6526 C.3     1  LEU1        0.0021
     36 CD1        67.4682   94.5413   10.5595 C.3     1  LEU1        0.0001
     37 CD2        66.1563   96.3490   11.8864 C.3     1  LEU1        0.0001
@<TRIPOS>BOND
     1    20    21    1
     2    21    22   ar
     3    22    23   ar
     4    23    19    1
     5    19    26    1
     6    26    27    2
     7    26    28   am
     8    28    29    1
     9    28    30    1
    10    30    31    1
    11    31    32    1
    12    19     1    1
    13     1     2   am
    14     2     3    2
    15     2     4    1
    16     4    10    1
    17    10    11    1
    18    11    12    1
    19    12    13   ar
    20    13    14   ar
    21    14    15   ar
    22    15    16   ar
    23    16    17   ar
    24    17    18    1
    25     4     5    1
    26     5     6   am
    27     6     7    2
    28     6     8    1
    29     8    34    1
    30    34    35    1
    31    35    36    1
    32    35    37    1
    33    23    24   ar
    34    24    25   ar
    35    25    21   ar
    36     8     1    1
    37    18    10    1
    38    17    12   ar
    39    32    33    1
    40     5     9    1
@<TRIPOS>MOLECULE
*****
 37 40 0 0 0
SMALL
GASTEIGER

@<TRIPOS>ATOM
      1 N          64.0864   90.8300   13.0019 N.am    1  LEU1       -0.2602
      2 C          63.2296   89.8809   12.2176 C.2     2  UNK2        0.2444
      3 O          62.6607   88.6614   12.8806 O.2     2  UNK2       -0.2731
      4 C          62.9417   90.1511   10.7706 C.3     2  UNK2        0.1494
      5 N          63.5106   91.3705   10.1077 N.am    2  UNK2       -0.2970
      6 C          64.3674   92.3196   10.8920 C.2     1  LEU1        0.2409
      7 O          64.9363   93.5390   10.2291 O.2     1  LEU1       -0.2733
      8 CA         64.6553   92.0494   12.3390 C.3     1  LEU1        0.1524
      9 H          63.3217   91.5479    9.1580 H       2  UNK2        0.1499
     10 C          62.0849   89.2020    9.9864 C.3     2  UNK2        0.0356
     11 C          60.7217   89.4957    9.4338 C.3     2  UNK2        0.0285
     12 C          60.2351   88.2677    8.7229 C.ar    2  UNK2       -0.0261
     13 C          58.9618   87.9721    7.9872 C.ar    2  UNK2       -0.0046
     14 C          58.7511   86.6238    7.3647 C.ar    2  UNK2       -0.0003
     15 C          59.8137   85.5711    7.4779 C.ar    2  UNK2       -0.0003
     16 C          61.0869   85.8667    8.2136 C.ar    2  UNK2       -0.0046
     17 C          61.2976   87.2150    8.8361 C.ar    2  UNK2       -0.0261
     18 C          62.4409   87.7924    9.6170 C.3     2  UNK2        0.0285
     19 C          64.3743   90.5597   14.4490 C.3     0  UNK0        0.1962
     20 C          64.6406   85.3367   15.1772 C.3     0  UNK0        0.0950
     21 C          64.2863   86.7844   15.3463 C.ar    0  UNK0        0.2061
     22 N          64.7621   87.9152   14.4832 N.ar    0  UNK0       -0.2142
     23 C          64.1639   89.1852   15.0115 C.ar    0  UNK0        0.1263
     24 C          63.3183   88.8393   16.2012 C.ar    0  UNK0        0.1979
     25 O          63.3939   87.3556   16.4081 O.2     0  UNK0       -0.4355
     26 C          64.8725   91.6639   15.3336 C.2     0  UNK0        0.2499
     27 O          63.9008   92.4829   16.1305 O.2     0  UNK0       -0.2727
     28 N          66.3426   91.9492   15.4212 N.am    0  UNK0       -0.2736
     29 C          66.8408   93.0534   16.3058 C.3     0  UNK0        0.1150
     30 C          67.3143   91.1302   14.6243 C.3     0  UNK0        0.1252
     31 C          68.7194   91.6165   14.4263 C.3     0  UNK0        0.1586
     32 O          69.3581   91.5326   13.0717 O.3     0  UNK0       -0.3802
     33 H          69.4724   90.6014   12.8252 H       0  UNK0        0.2105
     34 CB         65.5121   92.9985   13.1233 C.3     1  LEU1        0.0292
     35 CG         66.4716   93.9056   12.4116 C.3     1  LEU1        0.0021
     36 CD1        67.4862   93.3320   11.4674 C.3     1  LEU1        0.0001
     37 CD2        66.4165   95.3865   12.6442 C.3     1  LEU1        0.0001
@<TRIPOS>BOND
     1    20    21    1
     2    21    22   ar
     3    22    23   ar
     4    23    19    1
     5    19    26    1
     6    26    27    2
     7    26    28   am
     8    28    29    1
     9    28    30    1
    10    30    31    1
    11    31    32    1
    12    19     1    1
    13     1     2   am
    14     2     3    2
    15     2     4    1
    16     4    10    1
    17    10    11    1
    18    11    12    1
    19    12    13   ar
    20    13    14   ar
    21    14    15   ar
    22    15    16   ar
    23    16    17   ar
    24    17    18    1
    25     4     5    1
    26     5     6   am
    27     6     7    2
    28     6     8    1
    29     8    34    1
    30    34    35    1
    31    35    36    1
    32    35    37    1
    33    23    24   ar
    34    24    25   ar
    35    25    21   ar
    36     8     1    1
    37    18    10    1
    38    17    12   ar
    39    32    33    1
    40     5     9    1
