@<TRIPOS>MOLECULE
*****
 41 45 0 0 0
SMALL
GASTEIGER

@<TRIPOS>ATOM
      1 C          64.0245   86.4577   15.7217 C.ar    1  UNL1        0.0611
      2 C          63.2492   86.1026   16.9557 C.ar    1  UNL1        0.1037
      3 N          62.7176   87.3728   17.5506 N.ar    1  UNL1       -0.2269
      4 C          63.1642   88.5129   16.6842 C.ar    1  UNL1        0.1407
      5 N          62.9398   89.9930   16.7785 N.ar    1  UNL1       -0.3374
      6 C          63.5231   90.9075   15.7425 C.ar    1  UNL1        0.0735
      7 C          64.3309   90.3419   14.6122 C.ar    1  UNL1        0.0186
      8 C          64.5553   88.8618   14.5178 C.ar    1  UNL1        0.0047
      9 C          63.9720   87.9473   15.5539 C.ar    1  UNL1        0.0386
     10 H          62.4097   90.3642   17.5204 H       1  UNL1        0.1674
     11 C          64.9142   91.2565   13.5761 C.ar    1  UNL1        0.0206
     12 C          64.2248   91.4301   12.2553 C.ar    1  UNL1        0.0033
     13 C          64.8081   92.3447   11.2193 C.ar    1  UNL1        0.0238
     14 C          66.0809   93.0857   11.5041 C.ar    1  UNL1        0.1345
     15 N          66.7703   92.9120   12.8250 N.ar    1  UNL1       -0.2393
     16 C          66.1870   91.9974   13.8610 C.ar    1  UNL1        0.0990
     17 C          66.6642   94.0002   10.4682 C.2     1  UNL1        0.2635
     18 O          68.0700   93.7906    9.9887 O.2     1  UNL1       -0.2685
     19 N          65.8418   95.1244    9.9116 N.am    1  UNL1       -0.3013
     20 H          64.9191   95.2620   10.2263 H       1  UNL1        0.1497
     21 C          66.4251   96.0390    8.8756 C.3     1  UNL1        0.0720
     22 C          66.2681   96.8554    7.6271 C.3     1  UNL1        0.0213
     23 C          67.5924   96.8068    8.3298 C.3     1  UNL1        0.0213
     24 C          64.7286   85.4925   14.8146 C.2     1  UNL1        0.2015
     25 O          66.2230   85.3727   14.8620 O.2     1  UNL1       -0.2864
     26 C          62.6292   84.3965   11.6300 C.ar    1  UNL1        0.0920
     27 C          62.3577   82.9567   11.9513 C.ar    1  UNL1        0.0204
     28 C          62.8765   82.3622   13.2270 C.ar    1  UNL1        0.0312
     29 C          63.6668   83.2074   14.1814 C.ar    1  UNL1        0.1454
     30 F          64.1856   82.6129   15.4571 F       1  UNL1       -0.2040
     31 C          63.9383   84.6472   13.8602 C.ar    1  UNL1        0.0951
     32 C          63.4195   85.2417   12.5845 C.ar    1  UNL1        0.1598
     33 F          63.6910   86.6816   12.2633 F       1  UNL1       -0.2026
     34 N          62.1104   84.9911   10.3544 N.pl3   1  UNL1       -0.2166
     35 H          62.1074   84.4565    9.5276 H       1  UNL1        0.1734
     36 S          61.5962   86.4001   10.3383 S.O2    1  UNL1        0.0540
     37 O          62.2389   86.6194    9.0008 O.2     1  UNL1       -0.1545
     38 O          60.9535   86.1807   11.6758 O.2     1  UNL1       -0.1545
     39 C          61.0819   87.8090   10.3223 C.3     1  UNL1        0.1724
     40 C          61.5876   90.3573   10.3509 C.3     1  UNL1        0.0019
     41 C          62.0024   88.9472   10.6498 C.3     1  UNL1        0.0273
@<TRIPOS>BOND
     1    40    41    1
     2    41    39    1
     3    39    36    1
     4    36    37    2
     5    36    38    2
     6    36    34    1
     7    34    26    1
     8    26    27   ar
     9    27    28   ar
    10    28    29   ar
    11    29    30    1
    12    29    31   ar
    13    31    24    1
    14    24    25    2
    15    24     1    1
    16     1     2   ar
    17     2     3   ar
    18     3     4   ar
    19     4     5   ar
    20     5     6   ar
    21     6     7   ar
    22     7    11    1
    23    11    12   ar
    24    12    13   ar
    25    13    14   ar
    26    14    17    1
    27    17    18    2
    28    17    19   am
    29    19    21    1
    30    21    22    1
    31    22    23    1
    32    14    15   ar
    33    15    16   ar
    34     7     8   ar
    35     8     9   ar
    36    31    32   ar
    37    32    33    1
    38    32    26   ar
    39     9     1   ar
    40     9     4    1
    41    16    11   ar
    42    23    21    1
    43    34    35    1
    44     5    10    1
    45    19    20    1
@<TRIPOS>MOLECULE
*****
 41 45 0 0 0
SMALL
GASTEIGER

@<TRIPOS>ATOM
      1 C          61.5057   86.2421    8.9999 C.ar    1  UNL1        0.0611
      2 C          60.1695   85.9808    8.3704 C.ar    1  UNL1        0.1037
      3 N          59.3235   87.2059    8.5533 N.ar    1  UNL1       -0.2269
      4 C          60.1369   88.2243    9.2958 C.ar    1  UNL1        0.1407
      5 N          59.8237   89.6171    9.7563 N.ar    1  UNL1       -0.3374
      6 C          60.8592   90.4142   10.4927 C.ar    1  UNL1        0.0735
      7 C          62.2078   89.8185   10.7688 C.ar    1  UNL1        0.0186
      8 C          62.5210   88.4257   10.3083 C.ar    1  UNL1        0.0047
      9 C          61.4856   87.6286    9.5719 C.ar    1  UNL1        0.0386
     10 H          58.9385   90.0081    9.5751 H       1  UNL1        0.1674
     11 C          63.2433   90.6156   11.5053 C.ar    1  UNL1        0.0206
     12 C          64.0943   91.6049   10.7656 C.ar    1  UNL1        0.0033
     13 C          65.1298   92.4021   11.5021 C.ar    1  UNL1        0.0238
     14 C          65.3143   92.2098   12.9783 C.ar    1  UNL1        0.1345
     15 N          64.4633   91.2204   13.7179 N.ar    1  UNL1       -0.2393
     16 C          63.4279   90.4234   12.9814 C.ar    1  UNL1        0.0990
     17 C          66.3497   93.0069   13.7148 C.2     1  UNL1        0.2635
     18 O          66.4514   94.4875   13.4970 O.2     1  UNL1       -0.2685
     19 N          67.2835   92.3234   14.6691 N.am    1  UNL1       -0.3013
     20 H          67.2168   91.3516   14.8121 H       1  UNL1        0.1497
     21 C          68.3190   93.1205   15.4057 C.3     1  UNL1        0.0720
     22 C          68.7820   94.4205   15.9933 C.3     1  UNL1        0.0213
     23 C          69.6495   93.2009   16.0938 C.3     1  UNL1        0.0213
     24 C          62.6595   85.2849    9.0489 C.2     1  UNL1        0.2015
     25 O          63.4812   85.0370    7.8188 O.2     1  UNL1       -0.2864
     26 C          62.6508   84.2700   12.8857 C.ar    1  UNL1        0.0920
     27 C          63.6560   83.1567   12.8866 C.ar    1  UNL1        0.0204
     28 C          64.3290   82.7527   11.6084 C.ar    1  UNL1        0.0312
     29 C          63.9969   83.4621   10.3292 C.ar    1  UNL1        0.1454
     30 F          64.6700   83.0581    9.0510 F       1  UNL1       -0.2040
     31 C          62.9917   84.5754   10.3282 C.ar    1  UNL1        0.0951
     32 C          62.3187   84.9794   11.6064 C.ar    1  UNL1        0.1598
     33 F          61.3134   86.0928   11.6053 F       1  UNL1       -0.2026
     34 N          61.9777   84.6740   14.1639 N.pl3   1  UNL1       -0.2166
     35 H          60.9988   84.6097   14.2464 H       1  UNL1        0.1734
     36 S          62.7962   85.1759   15.3163 S.O2    1  UNL1        0.0540
     37 O          63.4693   86.1623   14.4087 O.2     1  UNL1       -0.1545
     38 O          62.1231   84.1894   16.2240 O.2     1  UNL1       -0.1545
     39 C          63.6146   85.6777   16.4688 C.3     1  UNL1        0.1724
     40 C          63.0210   88.0794   17.2624 C.3     1  UNL1        0.0019
     41 C          62.9987   86.5958   17.4826 C.3     1  UNL1        0.0273
@<TRIPOS>BOND
     1    40    41    1
     2    41    39    1
     3    39    36    1
     4    36    37    2
     5    36    38    2
     6    36    34    1
     7    34    26    1
     8    26    27   ar
     9    27    28   ar
    10    28    29   ar
    11    29    30    1
    12    29    31   ar
    13    31    24    1
    14    24    25    2
    15    24     1    1
    16     1     2   ar
    17     2     3   ar
    18     3     4   ar
    19     4     5   ar
    20     5     6   ar
    21     6     7   ar
    22     7    11    1
    23    11    12   ar
    24    12    13   ar
    25    13    14   ar
    26    14    17    1
    27    17    18    2
    28    17    19   am
    29    19    21    1
    30    21    22    1
    31    22    23    1
    32    14    15   ar
    33    15    16   ar
    34     7     8   ar
    35     8     9   ar
    36    31    32   ar
    37    32    33    1
    38    32    26   ar
    39     9     1   ar
    40     9     4    1
    41    16    11   ar
    42    23    21    1
    43    34    35    1
    44     5    10    1
    45    19    20    1
@<TRIPOS>MOLECULE
*****
 41 45 0 0 0
SMALL
GASTEIGER

@<TRIPOS>ATOM
      1 C          63.3672   84.3630   14.1287 C.ar    1  UNL1        0.0611
      2 C          62.7745   83.5375   15.2319 C.ar    1  UNL1        0.1037
      3 N          62.5163   84.4422   16.4002 N.ar    1  UNL1       -0.2269
      4 C          62.9494   85.8268   16.0189 C.ar    1  UNL1        0.1407
      5 N          62.9328   87.1258   16.7687 N.ar    1  UNL1       -0.3374
      6 C          63.4421   88.3758   16.1146 C.ar    1  UNL1        0.0735
      7 C          63.9681   88.3269   14.7107 C.ar    1  UNL1        0.0186
      8 C          63.9847   87.0279   13.9609 C.ar    1  UNL1        0.0047
      9 C          63.4753   85.7778   14.6150 C.ar    1  UNL1        0.0386
     10 H          62.5876   87.1579   17.6902 H       1  UNL1        0.1674
     11 C          64.4774   89.5770   14.0566 C.ar    1  UNL1        0.0206
     12 C          65.6203   90.3315   14.6686 C.ar    1  UNL1        0.0033
     13 C          66.1296   91.5817   14.0145 C.ar    1  UNL1        0.0238
     14 C          65.4961   92.0772   12.7484 C.ar    1  UNL1        0.1345
     15 N          64.3532   91.3226   12.1364 N.ar    1  UNL1       -0.2393
     16 C          63.8439   90.0726   12.7905 C.ar    1  UNL1        0.0990
     17 C          66.0054   93.3273   12.0943 C.2     1  UNL1        0.2635
     18 O          66.1882   94.5765   12.9042 O.2     1  UNL1       -0.2685
     19 N          66.3319   93.3281   10.6303 N.am    1  UNL1       -0.3013
     20 H          66.2119   92.5081   10.0987 H       1  UNL1        0.1497
     21 C          66.8413   94.5782    9.9761 C.3     1  UNL1        0.0720
     22 C          67.0040   96.0693    9.9736 C.3     1  UNL1        0.0213
     23 C          67.5607   95.2522    8.8456 C.3     1  UNL1        0.0213
     24 C          63.7795   83.8616   12.7764 C.2     1  UNL1        0.2015
     25 O          64.7559   82.7288   12.6621 O.2     1  UNL1       -0.2864
     26 C          61.4848   86.0627   10.4014 C.ar    1  UNL1        0.0920
     27 C          62.0870   85.7565    9.0622 C.ar    1  UNL1        0.0204
     28 C          63.2533   84.8187    8.9610 C.ar    1  UNL1        0.0312
     29 C          63.8175   84.1871   10.1989 C.ar    1  UNL1        0.1454
     30 F          64.9838   83.2493   10.0977 F       1  UNL1       -0.2040
     31 C          63.2153   84.4933   11.5382 C.ar    1  UNL1        0.0951
     32 C          62.0490   85.4311   11.6394 C.ar    1  UNL1        0.1598
     33 F          61.4469   85.7372   12.9788 F       1  UNL1       -0.2026
     34 N          60.3185   87.0005   10.5026 N.pl3   1  UNL1       -0.2166
     35 H          59.6725   86.9049   11.2394 H       1  UNL1        0.1734
     36 S          60.1365   88.0839    9.4813 S.O2    1  UNL1        0.0540
     37 O          61.1189   88.9444   10.2191 O.2     1  UNL1       -0.1545
     38 O          59.1540   87.2234    8.7436 O.2     1  UNL1       -0.1545
     39 C          59.9544   89.1672    8.4600 C.3     1  UNL1        0.1724
     40 C          59.2573   89.8937    6.0649 C.3     1  UNL1        0.0019
     41 C          59.2884   88.8601    7.1515 C.3     1  UNL1        0.0273
@<TRIPOS>BOND
     1    40    41    1
     2    41    39    1
     3    39    36    1
     4    36    37    2
     5    36    38    2
     6    36    34    1
     7    34    26    1
     8    26    27   ar
     9    27    28   ar
    10    28    29   ar
    11    29    30    1
    12    29    31   ar
    13    31    24    1
    14    24    25    2
    15    24     1    1
    16     1     2   ar
    17     2     3   ar
    18     3     4   ar
    19     4     5   ar
    20     5     6   ar
    21     6     7   ar
    22     7    11    1
    23    11    12   ar
    24    12    13   ar
    25    13    14   ar
    26    14    17    1
    27    17    18    2
    28    17    19   am
    29    19    21    1
    30    21    22    1
    31    22    23    1
    32    14    15   ar
    33    15    16   ar
    34     7     8   ar
    35     8     9   ar
    36    31    32   ar
    37    32    33    1
    38    32    26   ar
    39     9     1   ar
    40     9     4    1
    41    16    11   ar
    42    23    21    1
    43    34    35    1
    44     5    10    1
    45    19    20    1
@<TRIPOS>MOLECULE
*****
 41 45 0 0 0
SMALL
GASTEIGER

@<TRIPOS>ATOM
      1 C          61.3431   86.5322    8.9469 C.ar    1  UNL1        0.0611
      2 C          60.0733   86.3774    8.1636 C.ar    1  UNL1        0.1037
      3 N          59.3769   87.7057    8.1426 N.ar    1  UNL1       -0.2269
      4 C          60.2162   88.6815    8.9129 C.ar    1  UNL1        0.1407
      5 N          60.0310   90.1367    9.2259 N.ar    1  UNL1       -0.3374
      6 C          61.0610   90.8666   10.0360 C.ar    1  UNL1        0.0735
      7 C          62.2762   90.1413   10.5331 C.ar    1  UNL1        0.0186
      8 C          62.4615   88.6861   10.2201 C.ar    1  UNL1        0.0047
      9 C          61.4315   87.9562    9.4100 C.ar    1  UNL1        0.0386
     10 H          59.2334   90.6127    8.8996 H       1  UNL1        0.1674
     11 C          63.3063   90.8713   11.3432 C.ar    1  UNL1        0.0206
     12 C          64.2440   91.8319   10.6740 C.ar    1  UNL1        0.0033
     13 C          65.2740   92.5618   11.4842 C.ar    1  UNL1        0.0238
     14 C          65.3662   92.3312   12.9635 C.ar    1  UNL1        0.1345
     15 N          64.4284   91.3705   13.6326 N.ar    1  UNL1       -0.2393
     16 C          63.3985   90.6406   12.8225 C.ar    1  UNL1        0.0990
     17 C          66.3962   93.0611   13.7736 C.2     1  UNL1        0.2635
     18 O          66.4695   94.5584   13.7200 O.2     1  UNL1       -0.2685
     19 N          67.3528   92.2938   14.6373 N.am    1  UNL1       -0.3013
     20 H          67.3047   91.3111   14.6724 H       1  UNL1        0.1497
     21 C          68.3829   93.0237   15.4475 C.3     1  UNL1        0.0720
     22 C          69.5941   93.0023   16.3320 C.3     1  UNL1        0.0213
     23 C          68.9556   94.3094   15.9662 C.3     1  UNL1        0.0213
     24 C          62.3482   85.4525    9.2193 C.2     1  UNL1        0.2015
     25 O          63.1726   84.8948    8.0972 O.2     1  UNL1       -0.2864
     26 C          63.4540   83.1269   12.2391 C.ar    1  UNL1        0.0920
     27 C          62.8902   83.8866   13.4031 C.ar    1  UNL1        0.0204
     28 C          62.1458   85.1683   13.1726 C.ar    1  UNL1        0.0312
     29 C          61.9651   85.6903   11.7780 C.ar    1  UNL1        0.1454
     30 F          61.2207   86.9720   11.5475 F       1  UNL1       -0.2040
     31 C          62.5289   84.9305   10.6140 C.ar    1  UNL1        0.0951
     32 C          63.2733   83.6489   10.8445 C.ar    1  UNL1        0.1598
     33 F          63.8370   82.8892    9.6804 F       1  UNL1       -0.2026
     34 N          64.1983   81.8452   12.4697 N.pl3   1  UNL1       -0.2166
     35 H          65.1587   81.7892   12.2602 H       1  UNL1        0.1734
     36 S          63.4795   80.6489   13.0193 S.O2    1  UNL1        0.0540
     37 O          64.1368   80.8654   14.3501 O.2     1  UNL1       -0.1545
     38 O          62.8223   80.4323   11.6885 O.2     1  UNL1       -0.1545
     39 C          62.7607   79.4526   13.5689 C.3     1  UNL1        0.1724
     40 C          60.6938   80.9362   14.0954 C.3     1  UNL1        0.0019
     41 C          61.3661   79.5953   14.1026 C.3     1  UNL1        0.0273
@<TRIPOS>BOND
     1    40    41    1
     2    41    39    1
     3    39    36    1
     4    36    37    2
     5    36    38    2
     6    36    34    1
     7    34    26    1
     8    26    27   ar
     9    27    28   ar
    10    28    29   ar
    11    29    30    1
    12    29    31   ar
    13    31    24    1
    14    24    25    2
    15    24     1    1
    16     1     2   ar
    17     2     3   ar
    18     3     4   ar
    19     4     5   ar
    20     5     6   ar
    21     6     7   ar
    22     7    11    1
    23    11    12   ar
    24    12    13   ar
    25    13    14   ar
    26    14    17    1
    27    17    18    2
    28    17    19   am
    29    19    21    1
    30    21    22    1
    31    22    23    1
    32    14    15   ar
    33    15    16   ar
    34     7     8   ar
    35     8     9   ar
    36    31    32   ar
    37    32    33    1
    38    32    26   ar
    39     9     1   ar
    40     9     4    1
    41    16    11   ar
    42    23    21    1
    43    34    35    1
    44     5    10    1
    45    19    20    1
