@<TRIPOS>MOLECULE
*****
 33 36 0 0 0
SMALL
GASTEIGER

@<TRIPOS>ATOM
      1 N          63.7551   90.7872   12.2188 N.am    1  UNL1       -0.1198
      2 C          64.9120   91.4208   11.5048 C.2     1  UNL1        0.3351
      3 O          64.8653   91.3151   10.5275 O.2     1  UNL1       -0.2500
      4 N          65.9828   92.1222   12.2867 N.am    1  UNL1       -0.2210
      5 C          65.8967   92.1899   13.7827 C.ar    1  UNL1        0.1579
      6 N          66.9675   92.8912   14.5647 N.ar    1  UNL1       -0.2273
      7 C          66.8813   92.9589   16.0606 C.ar    1  UNL1        0.1004
      8 C          65.7243   92.3253   16.7747 C.ar    1  UNL1        0.0222
      9 C          64.6535   91.6239   15.9927 C.ar    1  UNL1        0.0247
     10 C          64.7397   91.5562   14.4968 C.ar    1  UNL1        0.1577
     11 S          63.6688   90.8549   13.7147 S.O2    1  UNL1        0.0862
     12 O          62.4171   90.0840   13.4163 O.2     1  UNL1       -0.1492
     13 O          63.1479   90.6548   15.1071 O.2     1  UNL1       -0.1492
     14 C          61.6934   87.9027   10.4357 C.ar    1  UNL1        0.1929
     15 C          62.7641   88.6040   11.2177 C.ar    1  UNL1        0.0600
     16 C          62.6842   90.0858   11.4368 C.ar    1  UNL1        0.1004
     17 C          61.5336   90.8662   10.8738 C.ar    1  UNL1        0.1189
     18 N          60.4628   90.1648   10.0919 N.ar    1  UNL1       -0.2062
     19 C          60.5427   88.6830    9.8728 C.ar    1  UNL1        0.2602
     20 C          62.3799   85.8808    8.9556 C.3     1  UNL1        0.2527
     21 O          61.7733   86.4209   10.2167 O.3     1  UNL1       -0.4667
     22 O          59.4719   87.9817    9.0908 O.3     1  UNL1       -0.4541
     23 C          59.3466   88.2151    7.6144 C.3     1  UNL1        0.2543
     24 C          67.1398   92.7559   11.5727 C.3     1  UNL1        0.1323
     25 C          66.8924   93.7808   10.5058 C.ar    1  UNL1        0.0532
     26 C          67.5084   93.6140    9.1483 C.ar    1  UNL1        0.1422
     27 F          68.3717   92.4224    8.8577 F       1  UNL1       -0.2043
     28 C          67.2609   94.6391    8.0814 C.ar    1  UNL1        0.0591
     29 C          66.3976   95.8307    8.3720 C.ar    1  UNL1        0.1446
     30 F          66.1502   96.8557    7.3052 F       1  UNL1       -0.2040
     31 C          65.7816   95.9975    9.7295 C.ar    1  UNL1        0.0591
     32 C          66.0290   94.9725   10.7964 C.ar    1  UNL1        0.1422
     33 F          65.5767   95.1834   11.6446 F       1  UNL1       -0.2043
@<TRIPOS>BOND
     1    20    21    1
     2    21    14    1
     3    14    15   ar
     4    15    16   ar
     5    16     1    1
     6     1     2   am
     7     2     3    2
     8     2     4   am
     9     4    24    1
    10    24    25    1
    11    25    26   ar
    12    26    27    1
    13    26    28   ar
    14    28    29   ar
    15    29    30    1
    16    29    31   ar
    17    31    32   ar
    18    32    33    1
    19     4     5    1
    20     5     6   ar
    21     6     7   ar
    22     7     8   ar
    23     8     9   ar
    24     9    10   ar
    25    10    11    1
    26    11    12    2
    27    11    13    2
    28    16    17   ar
    29    17    18   ar
    30    18    19   ar
    31    19    22    1
    32    22    23    1
    33    19    14   ar
    34    11     1    1
    35    32    25   ar
    36    10     5   ar
@<TRIPOS>MOLECULE
*****
 33 36 0 0 0
SMALL
GASTEIGER

@<TRIPOS>ATOM
      1 N          63.1444   90.7032   12.0986 N.am    1  UNL1       -0.1198
      2 C          64.0949   91.7354   11.5685 C.2     1  UNL1        0.3351
      3 O          64.0531   91.8301   10.5899 O.2     1  UNL1       -0.2500
      4 N          64.9797   92.4950   12.5120 N.am    1  UNL1       -0.2210
      5 C          64.9139   92.2225   13.9856 C.ar    1  UNL1        0.1579
      6 N          65.7986   92.9822   14.9291 N.ar    1  UNL1       -0.2273
      7 C          65.7327   92.7096   16.4026 C.ar    1  UNL1        0.1004
      8 C          64.7822   91.6774   16.9327 C.ar    1  UNL1        0.0222
      9 C          63.8975   90.9177   15.9892 C.ar    1  UNL1        0.0247
     10 C          63.9633   91.1903   14.5157 C.ar    1  UNL1        0.1577
     11 S          63.0786   90.4306   13.5722 S.O2    1  UNL1        0.0862
     12 O          62.0465   89.4591   13.0812 O.2     1  UNL1       -0.1492
     13 O          62.6543   89.8206   14.8753 O.2     1  UNL1       -0.1492
     14 C          61.8087   87.8460    9.6897 C.ar    1  UNL1        0.1929
     15 C          62.6933   88.6057   10.6332 C.ar    1  UNL1        0.0600
     16 C          62.2596   89.9435   11.1551 C.ar    1  UNL1        0.1004
     17 C          60.9413   90.5215   10.7335 C.ar    1  UNL1        0.1189
     18 N          60.0567   89.7619    9.7900 N.ar    1  UNL1       -0.2062
     19 C          60.4903   88.4241    9.2681 C.ar    1  UNL1        0.2602
     20 C          62.4583   85.3671   10.1170 C.3     1  UNL1        0.2527
     21 O          62.2423   86.5083    9.1679 O.3     1  UNL1       -0.4667
     22 O          59.6056   87.6644    8.3246 O.3     1  UNL1       -0.4541
     23 C          58.9413   88.3752    7.1829 C.3     1  UNL1        0.2543
     24 C          65.9302   93.5273   11.9819 C.3     1  UNL1        0.1323
     25 C          66.8943   93.1687   10.8902 C.ar    1  UNL1        0.0532
     26 C          67.9091   92.0864   11.1114 C.ar    1  UNL1        0.1422
     27 F          67.9598   91.3628   12.4243 F       1  UNL1       -0.2043
     28 C          68.8733   91.7279   10.0196 C.ar    1  UNL1        0.0591
     29 C          68.8226   92.4515    8.7067 C.ar    1  UNL1        0.1446
     30 F          69.7867   92.0930    7.6150 F       1  UNL1       -0.2040
     31 C          67.8078   93.5338    8.4856 C.ar    1  UNL1        0.0591
     32 C          66.8437   93.8924    9.5772 C.ar    1  UNL1        0.1422
     33 F          66.2250   94.6140    9.3222 F       1  UNL1       -0.2043
@<TRIPOS>BOND
     1    20    21    1
     2    21    14    1
     3    14    15   ar
     4    15    16   ar
     5    16     1    1
     6     1     2   am
     7     2     3    2
     8     2     4   am
     9     4    24    1
    10    24    25    1
    11    25    26   ar
    12    26    27    1
    13    26    28   ar
    14    28    29   ar
    15    29    30    1
    16    29    31   ar
    17    31    32   ar
    18    32    33    1
    19     4     5    1
    20     5     6   ar
    21     6     7   ar
    22     7     8   ar
    23     8     9   ar
    24     9    10   ar
    25    10    11    1
    26    11    12    2
    27    11    13    2
    28    16    17   ar
    29    17    18   ar
    30    18    19   ar
    31    19    22    1
    32    22    23    1
    33    19    14   ar
    34    11     1    1
    35    32    25   ar
    36    10     5   ar
@<TRIPOS>MOLECULE
*****
 33 36 0 0 0
SMALL
GASTEIGER

@<TRIPOS>ATOM
      1 N          62.4670   88.9514   11.5937 N.am    1  UNL1       -0.1198
      2 C          62.7407   87.4780   11.6584 C.2     1  UNL1        0.3351
      3 O          63.3891   87.2377   12.3587 O.2     1  UNL1       -0.2500
      4 N          62.0486   86.5442   10.7103 N.am    1  UNL1       -0.2210
      5 C          61.0826   87.0838    9.6974 C.ar    1  UNL1        0.1579
      6 N          60.3905   86.1500    8.7493 N.ar    1  UNL1       -0.2273
      7 C          59.4246   86.6897    7.7365 C.ar    1  UNL1        0.1004
      8 C          59.1508   88.1631    7.6719 C.ar    1  UNL1        0.0222
      9 C          59.8430   89.0968    8.6200 C.ar    1  UNL1        0.0247
     10 C          60.8089   88.5572    9.6328 C.ar    1  UNL1        0.1577
     11 S          61.5011   89.4910   10.5809 S.O2    1  UNL1        0.0862
     12 O          61.9067   90.7660   11.2591 O.2     1  UNL1       -0.1492
     13 O          60.6760   90.4734    9.8036 O.2     1  UNL1       -0.1492
     14 C          64.8956   91.7674   12.9801 C.ar    1  UNL1        0.1929
     15 C          64.2034   90.8336   12.0320 C.ar    1  UNL1        0.0600
     16 C          63.1592   89.8851   12.5419 C.ar    1  UNL1        0.1004
     17 C          62.8072   89.8704   13.9999 C.ar    1  UNL1        0.1189
     18 N          63.4994   90.8041   14.9480 N.ar    1  UNL1       -0.2062
     19 C          64.5436   91.7526   14.4381 C.ar    1  UNL1        0.2602
     20 C          66.2627   92.7593   11.0060 C.3     1  UNL1        0.2527
     21 O          65.9398   92.7159   12.4702 O.3     1  UNL1       -0.4667
     22 O          65.2358   92.6864   15.3863 O.3     1  UNL1       -0.4541
     23 C          66.6647   92.4412   15.7712 C.3     1  UNL1        0.2543
     24 C          62.3223   85.0708   10.7750 C.3     1  UNL1        0.1323
     25 C          62.9205   84.4728   12.0137 C.ar    1  UNL1        0.0532
     26 C          64.1858   83.6721   11.9244 C.ar    1  UNL1        0.1422
     27 F          64.8529   83.4695   10.5963 F       1  UNL1       -0.2043
     28 C          64.7840   83.0741   13.1632 C.ar    1  UNL1        0.0591
     29 C          64.1169   83.2767   14.4913 C.ar    1  UNL1        0.1446
     30 F          64.7150   82.6787   15.7300 F       1  UNL1       -0.2040
     31 C          62.8516   84.0774   14.5806 C.ar    1  UNL1        0.0591
     32 C          62.2534   84.6754   13.3419 C.ar    1  UNL1        0.1422
     33 F          61.4262   85.1785   13.5185 F       1  UNL1       -0.2043
@<TRIPOS>BOND
     1    20    21    1
     2    21    14    1
     3    14    15   ar
     4    15    16   ar
     5    16     1    1
     6     1     2   am
     7     2     3    2
     8     2     4   am
     9     4    24    1
    10    24    25    1
    11    25    26   ar
    12    26    27    1
    13    26    28   ar
    14    28    29   ar
    15    29    30    1
    16    29    31   ar
    17    31    32   ar
    18    32    33    1
    19     4     5    1
    20     5     6   ar
    21     6     7   ar
    22     7     8   ar
    23     8     9   ar
    24     9    10   ar
    25    10    11    1
    26    11    12    2
    27    11    13    2
    28    16    17   ar
    29    17    18   ar
    30    18    19   ar
    31    19    22    1
    32    22    23    1
    33    19    14   ar
    34    11     1    1
    35    32    25   ar
    36    10     5   ar
@<TRIPOS>MOLECULE
*****
 33 36 0 0 0
SMALL
GASTEIGER

@<TRIPOS>ATOM
      1 N          62.4480   88.9275   11.5332 N.am    1  UNL1       -0.1198
      2 C          62.7291   87.4545   11.5687 C.2     1  UNL1        0.3351
      3 O          63.3821   87.2043   12.2611 O.2     1  UNL1       -0.2500
      4 N          62.0366   86.5355   10.6066 N.am    1  UNL1       -0.2210
      5 C          61.0629   87.0894    9.6090 C.ar    1  UNL1        0.1579
      6 N          60.3703   86.1703    8.6469 N.ar    1  UNL1       -0.2273
      7 C          59.3967   86.7243    7.6493 C.ar    1  UNL1        0.1004
      8 C          59.1156   88.1973    7.6139 C.ar    1  UNL1        0.0222
      9 C          59.8081   89.1163    8.5760 C.ar    1  UNL1        0.0247
     10 C          60.7818   88.5624    9.5735 C.ar    1  UNL1        0.1577
     11 S          61.4744   89.4815   10.5357 S.O2    1  UNL1        0.0862
     12 O          61.8774   90.7454   11.2358 O.2     1  UNL1       -0.1492
     13 O          60.6407   90.4744    9.7812 O.2     1  UNL1       -0.1492
     14 C          63.6387   90.5900   14.9345 C.ar    1  UNL1        0.1929
     15 C          62.9462   89.6710   13.9723 C.ar    1  UNL1        0.0600
     16 C          63.1406   89.8466   12.4954 C.ar    1  UNL1        0.1004
     17 C          64.0276   90.9412   11.9806 C.ar    1  UNL1        0.1189
     18 N          64.7201   91.8602   12.9427 N.ar    1  UNL1       -0.2062
     19 C          64.5257   91.6846   14.4197 C.ar    1  UNL1        0.2602
     20 C          63.0964   89.0652   16.9669 C.3     1  UNL1        0.2527
     21 O          63.4443   90.4143   16.4114 O.3     1  UNL1       -0.4667
     22 O          65.2183   92.6037   15.3819 O.3     1  UNL1       -0.4541
     23 C          66.5991   93.1048   15.0785 C.3     1  UNL1        0.2543
     24 C          62.3177   85.0625   10.6420 C.3     1  UNL1        0.1323
     25 C          62.9075   84.4409   11.8731 C.ar    1  UNL1        0.0532
     26 C          64.1560   83.6156   11.7721 C.ar    1  UNL1        0.1422
     27 F          64.8146   83.4118   10.4399 F       1  UNL1       -0.2043
     28 C          64.7459   82.9940   13.0033 C.ar    1  UNL1        0.0591
     29 C          64.0873   83.1978   14.3354 C.ar    1  UNL1        0.1446
     30 F          64.6772   82.5762   15.5665 F       1  UNL1       -0.2040
     31 C          62.8389   84.0231   14.4365 C.ar    1  UNL1        0.0591
     32 C          62.2490   84.6447   13.2054 C.ar    1  UNL1        0.1422
     33 F          61.4328   85.1628   13.3895 F       1  UNL1       -0.2043
@<TRIPOS>BOND
     1    20    21    1
     2    21    14    1
     3    14    15   ar
     4    15    16   ar
     5    16     1    1
     6     1     2   am
     7     2     3    2
     8     2     4   am
     9     4    24    1
    10    24    25    1
    11    25    26   ar
    12    26    27    1
    13    26    28   ar
    14    28    29   ar
    15    29    30    1
    16    29    31   ar
    17    31    32   ar
    18    32    33    1
    19     4     5    1
    20     5     6   ar
    21     6     7   ar
    22     7     8   ar
    23     8     9   ar
    24     9    10   ar
    25    10    11    1
    26    11    12    2
    27    11    13    2
    28    16    17   ar
    29    17    18   ar
    30    18    19   ar
    31    19    22    1
    32    22    23    1
    33    19    14   ar
    34    11     1    1
    35    32    25   ar
    36    10     5   ar
@<TRIPOS>MOLECULE
*****
 33 36 0 0 0
SMALL
GASTEIGER

@<TRIPOS>ATOM
      1 N          61.9850   86.4163   10.7741 N.am    1  UNL1       -0.1198
      2 C          62.1211   87.7472   11.4524 C.2     1  UNL1        0.3351
      3 O          62.6400   87.7018   12.2874 O.2     1  UNL1       -0.2500
      4 N          61.4953   88.9668   10.8436 N.am    1  UNL1       -0.2210
      5 C          60.7332   88.8556    9.5564 C.ar    1  UNL1        0.1579
      6 N          60.1073   90.0753    8.9476 N.ar    1  UNL1       -0.2273
      7 C          59.3453   89.9640    7.6604 C.ar    1  UNL1        0.1004
      8 C          59.2091   88.6331    6.9820 C.ar    1  UNL1        0.0222
      9 C          59.8350   87.4135    7.5908 C.ar    1  UNL1        0.0247
     10 C          60.5970   87.5247    8.8780 C.ar    1  UNL1        0.1577
     11 S          61.2229   86.3050    9.4869 S.O2    1  UNL1        0.0862
     12 O          61.6337   84.8741    9.6709 O.2     1  UNL1       -0.1492
     13 O          60.6035   85.6968    8.2636 O.2     1  UNL1       -0.1492
     14 C          62.9866   83.6459   13.4333 C.ar    1  UNL1        0.1929
     15 C          62.3608   84.8655   12.8244 C.ar    1  UNL1        0.0600
     16 C          62.6109   85.1966   11.3830 C.ar    1  UNL1        0.1004
     17 C          63.4868   84.3081   10.5504 C.ar    1  UNL1        0.1189
     18 N          64.1127   83.0885   11.1593 N.ar    1  UNL1       -0.2062
     19 C          63.8626   82.7574   12.6008 C.ar    1  UNL1        0.2602
     20 C          62.4143   84.4076   15.8504 C.3     1  UNL1        0.2527
     21 O          62.7366   83.3148   14.8748 O.3     1  UNL1       -0.4667
     22 O          64.4885   81.5377   13.2096 O.3     1  UNL1       -0.4541
     23 C          63.6220   80.4181   13.7054 C.3     1  UNL1        0.2543
     24 C          61.6315   90.2977   11.5220 C.3     1  UNL1        0.1323
     25 C          62.9800   90.9433   11.6431 C.ar    1  UNL1        0.0532
     26 C          63.6912   90.9527   12.9637 C.ar    1  UNL1        0.1422
     27 F          63.0538   90.3164   14.1633 F       1  UNL1       -0.2043
     28 C          65.0397   91.5983   13.0848 C.ar    1  UNL1        0.0591
     29 C          65.6770   92.2345   11.8852 C.ar    1  UNL1        0.1446
     30 F          67.0255   92.8801   12.0063 F       1  UNL1       -0.2040
     31 C          64.9658   92.2252   10.5646 C.ar    1  UNL1        0.0591
     32 C          63.6173   91.5796   10.4435 C.ar    1  UNL1        0.1422
     33 F          63.2459   91.6327    9.5337 F       1  UNL1       -0.2043
@<TRIPOS>BOND
     1    20    21    1
     2    21    14    1
     3    14    15   ar
     4    15    16   ar
     5    16     1    1
     6     1     2   am
     7     2     3    2
     8     2     4   am
     9     4    24    1
    10    24    25    1
    11    25    26   ar
    12    26    27    1
    13    26    28   ar
    14    28    29   ar
    15    29    30    1
    16    29    31   ar
    17    31    32   ar
    18    32    33    1
    19     4     5    1
    20     5     6   ar
    21     6     7   ar
    22     7     8   ar
    23     8     9   ar
    24     9    10   ar
    25    10    11    1
    26    11    12    2
    27    11    13    2
    28    16    17   ar
    29    17    18   ar
    30    18    19   ar
    31    19    22    1
    32    22    23    1
    33    19    14   ar
    34    11     1    1
    35    32    25   ar
    36    10     5   ar
@<TRIPOS>MOLECULE
*****
 33 36 0 0 0
SMALL
GASTEIGER

@<TRIPOS>ATOM
      1 N          64.6820   92.0942   12.0130 N.am    1  UNL1       -0.1198
      2 C          63.5058   91.3707   11.4273 C.2     1  UNL1        0.3351
      3 O          63.3941   91.5353   10.4635 O.2     1  UNL1       -0.2500
      4 N          62.6455   90.5069   12.3013 N.am    1  UNL1       -0.2210
      5 C          62.9614   90.3667   13.7610 C.ar    1  UNL1        0.1579
      6 N          62.1011   89.5030   14.6349 N.ar    1  UNL1       -0.2273
      7 C          62.4170   89.3628   16.0945 C.ar    1  UNL1        0.1004
      8 C          63.5932   90.0863   16.6802 C.ar    1  UNL1        0.0222
      9 C          64.4535   90.9501   15.8063 C.ar    1  UNL1        0.0247
     10 C          64.1376   91.0903   14.3467 C.ar    1  UNL1        0.1577
     11 S          64.9979   91.9541   13.4727 S.O2    1  UNL1        0.0862
     12 O          66.1010   92.8809   13.0553 O.2     1  UNL1       -0.1492
     13 O          65.6969   92.1358   14.7874 O.2     1  UNL1       -0.1492
     14 C          67.7489   93.3326    9.8197 C.ar    1  UNL1        0.1929
     15 C          66.8886   92.4689   10.6936 C.ar    1  UNL1        0.0600
     16 C          65.5423   92.9580   11.1390 C.ar    1  UNL1        0.1004
     17 C          65.0564   94.3108   10.7105 C.ar    1  UNL1        0.1189
     18 N          65.9167   95.1745    9.8366 N.ar    1  UNL1       -0.2062
     19 C          67.2629   94.6854    9.3911 C.ar    1  UNL1        0.2602
     20 C          69.2011   91.8694    8.2386 C.3     1  UNL1        0.2527
     21 O          69.0951   92.8435    9.3742 O.3     1  UNL1       -0.4667
     22 O          68.1232   95.5492    8.5171 O.3     1  UNL1       -0.4541
     23 C          67.5940   96.8530    7.9975 C.3     1  UNL1        0.2543
     24 C          61.4693   89.7834   11.7156 C.3     1  UNL1        0.1323
     25 C          61.6852   88.5716   10.8583 C.ar    1  UNL1        0.0532
     26 C          61.0328   88.4803    9.5107 C.ar    1  UNL1        0.1422
     27 F          60.1645   89.6008    9.0204 F       1  UNL1       -0.2043
     28 C          61.2487   87.2684    8.6535 C.ar    1  UNL1        0.0591
     29 C          62.1170   86.1479    9.1438 C.ar    1  UNL1        0.1446
     30 F          62.3328   84.9361    8.2866 F       1  UNL1       -0.2040
     31 C          62.7694   86.2392   10.4914 C.ar    1  UNL1        0.0591
     32 C          62.5535   87.4510   11.3487 C.ar    1  UNL1        0.1422
     33 F          63.0284   87.4028   12.2093 F       1  UNL1       -0.2043
@<TRIPOS>BOND
     1    20    21    1
     2    21    14    1
     3    14    15   ar
     4    15    16   ar
     5    16     1    1
     6     1     2   am
     7     2     3    2
     8     2     4   am
     9     4    24    1
    10    24    25    1
    11    25    26   ar
    12    26    27    1
    13    26    28   ar
    14    28    29   ar
    15    29    30    1
    16    29    31   ar
    17    31    32   ar
    18    32    33    1
    19     4     5    1
    20     5     6   ar
    21     6     7   ar
    22     7     8   ar
    23     8     9   ar
    24     9    10   ar
    25    10    11    1
    26    11    12    2
    27    11    13    2
    28    16    17   ar
    29    17    18   ar
    30    18    19   ar
    31    19    22    1
    32    22    23    1
    33    19    14   ar
    34    11     1    1
    35    32    25   ar
    36    10     5   ar
@<TRIPOS>MOLECULE
*****
 33 36 0 0 0
SMALL
GASTEIGER

@<TRIPOS>ATOM
      1 N          62.9333   90.3416   11.9109 N.am    1  UNL1       -0.1198
      2 C          62.9185   89.6784   13.2562 C.2     1  UNL1        0.3351
      3 O          62.2343   88.9750   13.3307 O.2     1  UNL1       -0.2500
      4 N          63.8867   90.1118   14.3167 N.am    1  UNL1       -0.2210
      5 C          64.8699   91.2084   14.0319 C.ar    1  UNL1        0.1579
      6 N          65.8381   91.6417   15.0924 N.ar    1  UNL1       -0.2273
      7 C          66.8212   92.7382   14.8075 C.ar    1  UNL1        0.1004
      8 C          66.8360   93.4014   13.4621 C.ar    1  UNL1        0.0222
      9 C          65.8678   92.9680   12.4016 C.ar    1  UNL1        0.0247
     10 C          64.8847   91.8715   12.6865 C.ar    1  UNL1        0.1577
     11 S          63.9164   91.4381   11.6260 S.O2    1  UNL1        0.0862
     12 O          63.2036   91.3783   10.3075 O.2     1  UNL1       -0.1492
     13 O          64.6520   92.5139   10.8832 O.2     1  UNL1       -0.1492
     14 C          61.2184   88.1871    9.0530 C.ar    1  UNL1        0.1929
     15 C          62.1866   88.6205   10.1135 C.ar    1  UNL1        0.0600
     16 C          61.9650   89.9082   10.8503 C.ar    1  UNL1        0.1004
     17 C          60.7753   90.7624   10.5267 C.ar    1  UNL1        0.1189
     18 N          59.8071   90.3289    9.4662 N.ar    1  UNL1       -0.2062
     19 C          60.0286   89.0413    8.7294 C.ar    1  UNL1        0.2602
     20 C          62.4212   85.8940    8.8415 C.3     1  UNL1        0.2527
     21 O          61.4399   86.8995    8.3162 O.3     1  UNL1       -0.4667
     22 O          59.0603   88.6079    7.6689 O.3     1  UNL1       -0.4541
     23 C          59.0341   89.3115    6.3445 C.3     1  UNL1        0.2543
     24 C          63.8719   89.4487   15.6621 C.3     1  UNL1        0.1323
     25 C          63.8056   87.9534   15.7606 C.ar    1  UNL1        0.0532
     26 C          63.1725   87.3079   16.9575 C.ar    1  UNL1        0.1422
     27 F          62.6058   88.1576   18.0559 F       1  UNL1       -0.2043
     28 C          63.1063   85.8125   17.0559 C.ar    1  UNL1        0.0591
     29 C          63.6730   84.9628   15.9574 C.ar    1  UNL1        0.1446
     30 F          63.6067   83.4675   16.0559 F       1  UNL1       -0.2040
     31 C          64.3060   85.6083   14.7605 C.ar    1  UNL1        0.0591
     32 C          64.3723   87.1035   14.6620 C.ar    1  UNL1        0.1422
     33 F          64.8076   87.4157   13.8365 F       1  UNL1       -0.2043
@<TRIPOS>BOND
     1    20    21    1
     2    21    14    1
     3    14    15   ar
     4    15    16   ar
     5    16     1    1
     6     1     2   am
     7     2     3    2
     8     2     4   am
     9     4    24    1
    10    24    25    1
    11    25    26   ar
    12    26    27    1
    13    26    28   ar
    14    28    29   ar
    15    29    30    1
    16    29    31   ar
    17    31    32   ar
    18    32    33    1
    19     4     5    1
    20     5     6   ar
    21     6     7   ar
    22     7     8   ar
    23     8     9   ar
    24     9    10   ar
    25    10    11    1
    26    11    12    2
    27    11    13    2
    28    16    17   ar
    29    17    18   ar
    30    18    19   ar
    31    19    22    1
    32    22    23    1
    33    19    14   ar
    34    11     1    1
    35    32    25   ar
    36    10     5   ar
@<TRIPOS>MOLECULE
*****
 33 36 0 0 0
SMALL
GASTEIGER

@<TRIPOS>ATOM
      1 N          63.0354   89.7659   11.6830 N.am    1  UNL1       -0.1198
      2 C          62.8853   88.3773   12.2300 C.2     1  UNL1        0.3351
      3 O          63.4567   88.2087   13.0133 O.2     1  UNL1       -0.2500
      4 N          61.9358   87.4143   11.5812 N.am    1  UNL1       -0.2210
      5 C          61.1363   87.8399   10.3855 C.ar    1  UNL1        0.1579
      6 N          60.1867   86.8768    9.7368 N.ar    1  UNL1       -0.2273
      7 C          59.3873   87.3025    8.5411 C.ar    1  UNL1        0.1004
      8 C          59.5374   88.6911    7.9942 C.ar    1  UNL1        0.0222
      9 C          60.4869   89.6541    8.6429 C.ar    1  UNL1        0.0247
     10 C          61.2864   89.2285    9.8386 C.ar    1  UNL1        0.1577
     11 S          62.2360   90.1916   10.4874 S.O2    1  UNL1        0.0862
     12 O          63.0001   91.4548   10.7529 O.2     1  UNL1       -0.1492
     13 O          61.7018   91.0559    9.3839 O.2     1  UNL1       -0.1492
     14 C          65.9535   92.4148   12.1503 C.ar    1  UNL1        0.1929
     15 C          65.0039   91.4518   11.5016 C.ar    1  UNL1        0.0600
     16 C          63.9850   90.7290   12.3319 C.ar    1  UNL1        0.1004
     17 C          63.9157   90.9691   13.8108 C.ar    1  UNL1        0.1189
     18 N          64.8653   91.9321   14.4596 N.ar    1  UNL1       -0.2062
     19 C          65.8842   92.6550   13.6293 C.ar    1  UNL1        0.2602
     20 C          66.5286   94.0845   10.2448 C.3     1  UNL1        0.2527
     21 O          66.9724   93.1376   11.3201 O.3     1  UNL1       -0.4667
     22 O          66.8338   93.6180   14.2781 O.3     1  UNL1       -0.4541
     23 C          67.4401   93.2907   15.6105 C.3     1  UNL1        0.2543
     24 C          61.7857   86.0256   12.1282 C.3     1  UNL1        0.1323
     25 C          62.5476   84.8902   11.5115 C.ar    1  UNL1        0.0532
     26 C          62.8468   83.6618   12.3186 C.ar    1  UNL1        0.1422
     27 F          62.3839   83.5687   13.7423 F       1  UNL1       -0.2043
     28 C          63.6088   82.5264   11.7019 C.ar    1  UNL1        0.0591
     29 C          64.0716   82.6195   10.2781 C.ar    1  UNL1        0.1446
     30 F          64.8336   81.4841    9.6615 F       1  UNL1       -0.2040
     31 C          63.7725   83.8479    9.4711 C.ar    1  UNL1        0.0591
     32 C          63.0105   84.9833   10.0877 C.ar    1  UNL1        0.1422
     33 F          62.8723   85.7352    9.4680 F       1  UNL1       -0.2043
@<TRIPOS>BOND
     1    20    21    1
     2    21    14    1
     3    14    15   ar
     4    15    16   ar
     5    16     1    1
     6     1     2   am
     7     2     3    2
     8     2     4   am
     9     4    24    1
    10    24    25    1
    11    25    26   ar
    12    26    27    1
    13    26    28   ar
    14    28    29   ar
    15    29    30    1
    16    29    31   ar
    17    31    32   ar
    18    32    33    1
    19     4     5    1
    20     5     6   ar
    21     6     7   ar
    22     7     8   ar
    23     8     9   ar
    24     9    10   ar
    25    10    11    1
    26    11    12    2
    27    11    13    2
    28    16    17   ar
    29    17    18   ar
    30    18    19   ar
    31    19    22    1
    32    22    23    1
    33    19    14   ar
    34    11     1    1
    35    32    25   ar
    36    10     5   ar
@<TRIPOS>MOLECULE
*****
 33 36 0 0 0
SMALL
GASTEIGER

@<TRIPOS>ATOM
      1 N          63.5402   87.8016   13.4237 N.am    1  UNL1       -0.1198
      2 C          62.5271   87.8419   12.3183 C.2     1  UNL1        0.3351
      3 O          62.2580   88.7571   12.0764 O.2     1  UNL1       -0.2500
      4 N          62.0339   86.5644   11.7060 N.am    1  UNL1       -0.2210
      5 C          62.5539   85.2466   12.1992 C.ar    1  UNL1        0.1579
      6 N          62.0607   83.9692   11.5869 N.ar    1  UNL1       -0.2273
      7 C          62.5807   82.6515   12.0801 C.ar    1  UNL1        0.1004
      8 C          63.5938   82.6112   13.1855 C.ar    1  UNL1        0.0222
      9 C          64.0870   83.8887   13.7978 C.ar    1  UNL1        0.0247
     10 C          63.5670   85.2064   13.3046 C.ar    1  UNL1        0.1577
     11 S          64.0602   86.4839   13.9169 S.O2    1  UNL1        0.0862
     12 O          64.8263   87.4162   14.8079 O.2     1  UNL1       -0.1492
     13 O          64.8462   85.4899   14.7195 O.2     1  UNL1       -0.1492
     14 C          65.4586   91.2457   13.8796 C.ar    1  UNL1        0.1929
     15 C          64.9654   89.9683   13.2674 C.ar    1  UNL1        0.0600
     16 C          64.0334   89.0791   14.0360 C.ar    1  UNL1        0.1004
     17 C          63.5944   89.4675   15.4167 C.ar    1  UNL1        0.1189
     18 N          64.0876   90.7450   16.0289 N.ar    1  UNL1       -0.2062
     19 C          65.0197   91.6341   15.2603 C.ar    1  UNL1        0.2602
     20 C          65.8391   93.1776   12.1846 C.3     1  UNL1        0.2527
     21 O          66.3907   92.1349   13.1110 O.3     1  UNL1       -0.4667
     22 O          65.5128   92.9116   15.8726 O.3     1  UNL1       -0.4541
     23 C          66.9754   93.0943   16.1509 C.3     1  UNL1        0.2543
     24 C          61.0208   86.6047   10.6006 C.3     1  UNL1        0.1323
     25 C          61.3554   86.0316    9.2554 C.ar    1  UNL1        0.0532
     26 C          60.3081   85.9741    8.1831 C.ar    1  UNL1        0.1422
     27 F          58.9261   86.4896    8.4560 F       1  UNL1       -0.2043
     28 C          60.6427   85.4010    6.8378 C.ar    1  UNL1        0.0591
     29 C          62.0246   84.8856    6.5649 C.ar    1  UNL1        0.1446
     30 F          62.3592   84.3125    5.2197 F       1  UNL1       -0.2040
     31 C          63.0719   84.9431    7.6372 C.ar    1  UNL1        0.0591
     32 C          62.7374   85.5161    8.9824 C.ar    1  UNL1        0.1422
     33 F          63.4986   85.5034    9.6060 F       1  UNL1       -0.2043
@<TRIPOS>BOND
     1    20    21    1
     2    21    14    1
     3    14    15   ar
     4    15    16   ar
     5    16     1    1
     6     1     2   am
     7     2     3    2
     8     2     4   am
     9     4    24    1
    10    24    25    1
    11    25    26   ar
    12    26    27    1
    13    26    28   ar
    14    28    29   ar
    15    29    30    1
    16    29    31   ar
    17    31    32   ar
    18    32    33    1
    19     4     5    1
    20     5     6   ar
    21     6     7   ar
    22     7     8   ar
    23     8     9   ar
    24     9    10   ar
    25    10    11    1
    26    11    12    2
    27    11    13    2
    28    16    17   ar
    29    17    18   ar
    30    18    19   ar
    31    19    22    1
    32    22    23    1
    33    19    14   ar
    34    11     1    1
    35    32    25   ar
    36    10     5   ar
