@<TRIPOS>MOLECULE
*****
 32 35 0 0 0
SMALL
GASTEIGER

@<TRIPOS>ATOM
      1 C          65.2824   91.7312   13.5928 C.ar    1  UNL1       -0.0044
      2 C          65.5533   90.7346   14.6805 C.ar    1  UNL1       -0.0014
      3 C          64.9727   89.3542   14.5946 C.ar    1  UNL1        0.0144
      4 C          64.1211   88.9705   13.4209 C.ar    1  UNL1        0.0516
      5 C          63.8502   89.9672   12.3331 C.ar    1  UNL1        0.0144
      6 C          64.4309   91.3475   12.4191 C.ar    1  UNL1       -0.0014
      7 N          63.5404   87.5901   13.3349 N.am    1  UNL1       -0.2681
      8 C          64.1622   86.4654   14.1084 C.2     1  UNL1        0.3077
      9 O          65.3648   86.7210   14.9678 O.2     1  UNL1       -0.2522
     10 N          63.5816   85.0850   14.0225 N.am    1  UNL1       -0.2632
     11 C          63.9157   83.7542   14.6283 C.3     1  UNL1        0.1010
     12 C          62.7603   83.1328   13.9009 C.3     1  UNL1        0.0636
     13 C          62.4262   84.4637   13.2951 C.3     1  UNL1        0.1010
     14 H          62.7511   87.4223   12.7709 H       1  UNL1        0.1564
     15 C          62.1796   81.7525   13.8150 C.ar    1  UNL1       -0.0000
     16 C          60.7744   81.5001   14.2749 C.ar    1  UNL1       -0.0010
     17 C          60.1936   80.1197   14.1890 C.ar    1  UNL1        0.0204
     18 C          61.0182   78.9918   13.6431 C.ar    1  UNL1        0.0989
     19 N          62.4235   79.2443   13.1832 N.ar    1  UNL1       -0.2426
     20 C          63.0042   80.6246   13.2691 C.ar    1  UNL1        0.0947
     21 C          66.4622   93.5945   14.9662 C.3     1  UNL1        0.0262
     22 C          65.8631   93.1116   13.6787 C.3     1  UNL1        0.0942
     23 N          65.8446   94.0092   12.4770 N.am    1  UNL1       -0.3011
     24 C          66.8221   93.7885   11.3609 C.2     1  UNL1        0.2372
     25 O          67.8182   92.6701   11.4465 O.2     1  UNL1       -0.2736
     26 H          65.1909   94.7431   12.4208 H       1  UNL1        0.1497
     27 C          66.8036   94.6860   10.1592 C.3     1  UNL1        0.1348
     28 C          67.2924   94.3313    8.7862 C.3     1  UNL1        0.0267
     29 C          67.0839   95.5219    7.8979 C.3     1  UNL1        0.0192
     30 C          66.4664   96.6125    8.7220 C.3     1  UNL1        0.0726
     31 N          66.2931   96.0959   10.1195 N.3     1  UNL1       -0.2653
     32 C          65.7115   96.8558   11.2746 C.3     1  UNL1        0.0900
@<TRIPOS>BOND
     1    22    21    1
     2    22    23    1
     3    23    24   am
     4    24    25    2
     5    27    24    1
     6    27    28    1
     7    28    29    1
     8    29    30    1
     9    30    31    1
    10    31    32    1
    11    22     1    1
    12     1     2   ar
    13     2     3   ar
    14     3     4   ar
    15     4     7    1
    16     7     8   am
    17     8     9    2
    18     8    10   am
    19    10    11    1
    20    11    12    1
    21    12    15    1
    22    15    16   ar
    23    16    17   ar
    24    17    18   ar
    25    18    19   ar
    26    19    20   ar
    27    12    13    1
    28     4     5   ar
    29     5     6   ar
    30    31    27    1
    31     6     1   ar
    32    13    10    1
    33    20    15   ar
    34    23    26    1
    35     7    14    1
@<TRIPOS>MOLECULE
*****
 32 35 0 0 0
SMALL
GASTEIGER

@<TRIPOS>ATOM
      1 C          60.1231   88.1862    9.2332 C.ar    1  UNL1       -0.0044
      2 C          60.4297   89.6543    9.2086 C.ar    1  UNL1       -0.0014
      3 C          60.1468   90.4589    7.9747 C.ar    1  UNL1        0.0144
      4 C          59.5574   89.7954    6.7654 C.ar    1  UNL1        0.0516
      5 C          59.2507   88.3273    6.7901 C.ar    1  UNL1        0.0144
      6 C          59.5336   87.5227    8.0240 C.ar    1  UNL1       -0.0014
      7 N          59.2745   90.6001    5.5315 N.am    1  UNL1       -0.2681
      8 C          60.4063   91.2036    4.7539 C.2     1  UNL1        0.3077
      9 O          61.8210   91.0026    5.2102 O.2     1  UNL1       -0.2522
     10 N          60.1235   92.0083    3.5199 N.am    1  UNL1       -0.2632
     11 C          60.9630   92.7415    2.5163 C.3     1  UNL1        0.1010
     12 C          59.7234   93.1462    1.7749 C.3     1  UNL1        0.0636
     13 C          58.8838   92.4129    2.7786 C.3     1  UNL1        0.1010
     14 H          58.3460   90.7320    5.2320 H       1  UNL1        0.1564
     15 C          59.4405   93.9509    0.5410 C.ar    1  UNL1       -0.0000
     16 C          59.0807   93.2582   -0.7398 C.ar    1  UNL1       -0.0010
     17 C          58.7978   94.0628   -1.9738 C.ar    1  UNL1        0.0204
     18 C          58.8747   95.5601   -1.9268 C.ar    1  UNL1        0.0989
     19 N          59.2345   96.2528   -0.6458 N.ar    1  UNL1       -0.2426
     20 C          59.5174   95.4481    0.5880 C.ar    1  UNL1        0.0947
     21 C          59.9965   87.9029   11.8127 C.3     1  UNL1        0.0262
     22 C          60.4059   87.3815   10.4672 C.3     1  UNL1        0.0942
     23 N          61.0982   86.0555   10.3555 N.am    1  UNL1       -0.3011
     24 C          62.3028   85.7648   11.2007 C.2     1  UNL1        0.2372
     25 O          62.8151   86.8001   12.1577 O.2     1  UNL1       -0.2736
     26 H          60.7619   85.3760    9.7274 H       1  UNL1        0.1497
     27 C          62.9951   84.4388   11.0890 C.3     1  UNL1        0.1348
     28 C          63.6296   83.8769    9.8514 C.3     1  UNL1        0.0267
     29 C          64.2011   82.5327   10.1928 C.3     1  UNL1        0.0192
     30 C          63.9197   82.2638   11.6415 C.3     1  UNL1        0.0726
     31 N          63.1743   83.4418   12.1953 N.3     1  UNL1       -0.2653
     32 C          62.6928   83.5958   13.6076 C.3     1  UNL1        0.0900
@<TRIPOS>BOND
     1    22    21    1
     2    22    23    1
     3    23    24   am
     4    24    25    2
     5    27    24    1
     6    27    28    1
     7    28    29    1
     8    29    30    1
     9    30    31    1
    10    31    32    1
    11    22     1    1
    12     1     2   ar
    13     2     3   ar
    14     3     4   ar
    15     4     7    1
    16     7     8   am
    17     8     9    2
    18     8    10   am
    19    10    11    1
    20    11    12    1
    21    12    15    1
    22    15    16   ar
    23    16    17   ar
    24    17    18   ar
    25    18    19   ar
    26    19    20   ar
    27    12    13    1
    28     4     5   ar
    29     5     6   ar
    30    31    27    1
    31     6     1   ar
    32    13    10    1
    33    20    15   ar
    34    23    26    1
    35     7    14    1
@<TRIPOS>MOLECULE
*****
 32 35 0 0 0
SMALL
GASTEIGER

@<TRIPOS>ATOM
      1 C          63.3643   86.4310   16.1835 C.ar    1  UNL1       -0.0044
      2 C          63.0011   87.8134   16.6382 C.ar    1  UNL1       -0.0014
      3 C          63.5068   89.0078   15.8847 C.ar    1  UNL1        0.0144
      4 C          64.3756   88.8197   14.6765 C.ar    1  UNL1        0.0516
      5 C          64.7387   87.4372   14.2217 C.ar    1  UNL1        0.0144
      6 C          64.2331   86.2428   14.9752 C.ar    1  UNL1       -0.0014
      7 N          64.8812   90.0141   13.9230 N.am    1  UNL1       -0.2681
      8 C          64.3535   90.3141   12.5513 C.2     1  UNL1        0.3077
      9 O          63.3202   89.4197   11.9331 O.2     1  UNL1       -0.2522
     10 N          64.8592   91.5085   11.7978 N.am    1  UNL1       -0.2632
     11 C          64.5794   92.1104   10.4527 C.3     1  UNL1        0.1010
     12 C          65.5743   93.1977   10.7323 C.3     1  UNL1        0.0636
     13 C          65.8540   92.5958   12.0775 C.3     1  UNL1        0.1010
     14 H          65.5594   90.6012   14.3287 H       1  UNL1        0.1564
     15 C          66.0799   94.3921    9.9789 C.ar    1  UNL1       -0.0000
     16 C          65.2786   95.6599    9.9578 C.ar    1  UNL1       -0.0010
     17 C          65.7842   96.8544    9.2044 C.ar    1  UNL1        0.0204
     18 C          67.0912   96.7810    8.4720 C.ar    1  UNL1        0.0989
     19 N          67.8926   95.5131    8.4931 N.ar    1  UNL1       -0.2426
     20 C          67.3869   94.3187    9.2465 C.ar    1  UNL1        0.0947
     21 C          62.3237   85.3991   18.3288 C.3     1  UNL1        0.0262
     22 C          62.8586   85.2365   16.9370 C.3     1  UNL1        0.0942
     23 N          62.8880   83.8795   16.2985 N.am    1  UNL1       -0.3011
     24 C          62.2610   83.6703   14.9521 C.2     1  UNL1        0.2372
     25 O          61.6045   84.8183   14.2439 O.2     1  UNL1       -0.2736
     26 H          63.3189   83.1260   16.7633 H       1  UNL1        0.1497
     27 C          62.2904   82.3133   14.3136 C.3     1  UNL1        0.1348
     28 C          61.2163   81.2706   14.4090 C.3     1  UNL1        0.0267
     29 C          61.6611   80.0735   13.6221 C.3     1  UNL1        0.0192
     30 C          63.0101   80.3765   13.0403 C.3     1  UNL1        0.0726
     31 N          63.3990   81.7607   13.4677 N.3     1  UNL1       -0.2653
     32 C          64.6729   82.4681   13.1117 C.3     1  UNL1        0.0900
@<TRIPOS>BOND
     1    22    21    1
     2    22    23    1
     3    23    24   am
     4    24    25    2
     5    27    24    1
     6    27    28    1
     7    28    29    1
     8    29    30    1
     9    30    31    1
    10    31    32    1
    11    22     1    1
    12     1     2   ar
    13     2     3   ar
    14     3     4   ar
    15     4     7    1
    16     7     8   am
    17     8     9    2
    18     8    10   am
    19    10    11    1
    20    11    12    1
    21    12    15    1
    22    15    16   ar
    23    16    17   ar
    24    17    18   ar
    25    18    19   ar
    26    19    20   ar
    27    12    13    1
    28     4     5   ar
    29     5     6   ar
    30    31    27    1
    31     6     1   ar
    32    13    10    1
    33    20    15   ar
    34    23    26    1
    35     7    14    1
