@<TRIPOS>MOLECULE
*****
 32 35 0 0 0
SMALL
GASTEIGER

@<TRIPOS>ATOM
      1 N          65.3057   90.8406   13.3291 N.am    1  UNL1       -0.2680
      2 C          64.2303   90.2410   12.4725 C.2     1  UNL1        0.3077
      3 O          63.5107   91.0909   11.4677 O.2     1  UNL1       -0.2522
      4 N          63.8744   88.7913   12.6208 N.am    1  UNL1       -0.2640
      5 C          64.5037   87.8224   13.5775 C.3     1  UNL1        0.0950
      6 C          63.8449   86.4884   13.3864 C.3     1  UNL1        0.0219
      7 C          63.8267   85.0651   13.8595 C.3     1  UNL1        0.0061
      8 C          62.7791   84.3299   13.0772 C.3     1  UNL1        0.0224
      9 C          62.1498   85.2989   12.1206 C.3     1  UNL1        0.0061
     10 C          62.8085   86.6329   12.3117 C.3     1  UNL1        0.0219
     11 C          62.8267   88.0562   11.8385 C.3     1  UNL1        0.0950
     12 H          65.7780   90.2828   13.9886 H       1  UNL1        0.1564
     13 C          65.7914   95.0736   10.3549 C.3     1  UNL1        0.0521
     14 C          65.9045   94.4067   11.6937 C.ar    1  UNL1        0.0606
     15 C          65.5486   92.9571   11.8420 C.ar    1  UNL1        0.0295
     16 C          65.6617   92.2903   13.1809 C.ar    1  UNL1        0.0553
     17 C          66.1307   93.0729   14.3714 C.ar    1  UNL1        0.0466
     18 C          66.4866   94.5225   14.2231 C.ar    1  UNL1        0.1008
     19 N          66.3735   95.1894   12.8842 N.ar    1  UNL1       -0.2480
     20 C          66.2437   92.4061   15.7102 C.2     1  UNL1        0.0756
     21 O          67.5823   92.2819   16.3756 O.co2   1  UNL1       -0.5445
     22 O          65.0182   91.8634   16.3837 O.co2   1  UNL1       -0.5445
     23 C          62.4232   82.8804   13.2255 C.ar    1  UNL1       -0.0186
     24 C          61.4477   82.4518   14.2812 C.ar    1  UNL1       -0.0043
     25 C          61.0918   81.0021   14.4296 C.ar    1  UNL1       -0.0003
     26 C          61.7114   79.9811   13.5221 C.ar    1  UNL1       -0.0001
     27 C          62.6870   80.4097   12.4663 C.ar    1  UNL1        0.0035
     28 C          63.0429   81.8593   12.3180 C.ar    1  UNL1        0.0675
     29 C          64.0184   82.2879   11.2622 C.3     1  UNL1        0.4183
     30 F          64.9939   82.7165   10.2065 F       1  UNL1       -0.1659
     31 F          62.9016   82.3717   10.2644 F       1  UNL1       -0.1659
     32 F          65.1351   82.2040   12.2601 F       1  UNL1       -0.1659
@<TRIPOS>UNITY_ATOM_ATTR
21 1
charge -1
@<TRIPOS>BOND
     1    13    14    1
     2    14    15   ar
     3    15    16   ar
     4    16     1    1
     5     1     2   am
     6     2     3    2
     7     2     4   am
     8     4     5    1
     9     6     5    1
    10     6     7    1
    11     7     8    1
    12     8    23    1
    13    23    24   ar
    14    24    25   ar
    15    25    26   ar
    16    26    27   ar
    17    27    28   ar
    18    28    29    1
    19    29    30    1
    20    29    31    1
    21    29    32    1
    22     8     9    1
    23    10     9    1
    24    10    11    1
    25    16    17   ar
    26    17    20    1
    27    20    21   ar
    28    20    22   ar
    29    17    18   ar
    30    18    19   ar
    31    19    14   ar
    32    11     4    1
    33    10     6    1
    34    28    23   ar
    35     1    12    1
@<TRIPOS>MOLECULE
*****
 32 35 0 0 0
SMALL
GASTEIGER

@<TRIPOS>ATOM
      1 N          64.6857   88.5150   14.5177 N.am    1  UNL1       -0.2680
      2 C          63.7178   88.1583   13.4287 C.2     1  UNL1        0.3077
      3 O          62.8996   89.2302   12.7717 O.2     1  UNL1       -0.2522
      4 N          63.5680   86.7297   12.9967 N.am    1  UNL1       -0.2640
      5 C          64.3143   85.5559   13.5582 C.3     1  UNL1        0.0950
      6 C          63.8532   84.3249   12.8358 C.3     1  UNL1        0.0219
      7 C          64.0294   82.8386   12.7364 C.3     1  UNL1        0.0061
      8 C          63.1071   82.3329   11.6670 C.3     1  UNL1        0.0224
      9 C          62.3609   83.5067   11.1054 C.3     1  UNL1        0.0061
     10 C          62.8220   84.7378   11.8278 C.3     1  UNL1        0.0219
     11 C          62.6458   86.2241   11.9272 C.3     1  UNL1        0.0950
     12 H          65.2227   87.8115   14.9488 H       1  UNL1        0.1564
     13 C          67.0926   93.1040   14.1325 C.3     1  UNL1        0.0521
     14 C          66.0390   92.2381   14.7571 C.ar    1  UNL1        0.0606
     15 C          65.8891   90.8095   14.3251 C.ar    1  UNL1        0.0295
     16 C          64.8355   89.9436   14.9498 C.ar    1  UNL1        0.0553
     17 C          63.9317   90.5063   16.0064 C.ar    1  UNL1        0.0466
     18 C          64.0816   91.9349   16.4384 C.ar    1  UNL1        0.1008
     19 N          65.1352   92.8008   15.8138 N.ar    1  UNL1       -0.2480
     20 C          62.8781   89.6404   16.6311 C.2     1  UNL1        0.0756
     21 O          61.4873   89.6283   16.0694 O.co2   1  UNL1       -0.5445
     22 O          63.2153   88.7867   17.8174 O.co2   1  UNL1       -0.5445
     23 C          62.9574   80.9043   11.2350 C.ar    1  UNL1       -0.0186
     24 C          63.2238   80.5199    9.8098 C.ar    1  UNL1       -0.0043
     25 C          63.0740   79.0913    9.3776 C.ar    1  UNL1       -0.0003
     26 C          62.6579   78.0471   10.3708 C.ar    1  UNL1       -0.0001
     27 C          62.3914   78.4315   11.7961 C.ar    1  UNL1        0.0035
     28 C          62.5412   79.8600   12.2282 C.ar    1  UNL1        0.0675
     29 C          62.2748   80.2445   13.6534 C.3     1  UNL1        0.4183
     30 F          62.0084   80.6289   15.0786 F       1  UNL1       -0.1659
     31 F          63.6906   79.9011   14.0106 F       1  UNL1       -0.1659
     32 F          60.8590   80.5879   13.2961 F       1  UNL1       -0.1659
@<TRIPOS>UNITY_ATOM_ATTR
21 1
charge -1
@<TRIPOS>BOND
     1    13    14    1
     2    14    15   ar
     3    15    16   ar
     4    16     1    1
     5     1     2   am
     6     2     3    2
     7     2     4   am
     8     4     5    1
     9     6     5    1
    10     6     7    1
    11     7     8    1
    12     8    23    1
    13    23    24   ar
    14    24    25   ar
    15    25    26   ar
    16    26    27   ar
    17    27    28   ar
    18    28    29    1
    19    29    30    1
    20    29    31    1
    21    29    32    1
    22     8     9    1
    23    10     9    1
    24    10    11    1
    25    16    17   ar
    26    17    20    1
    27    20    21   ar
    28    20    22   ar
    29    17    18   ar
    30    18    19   ar
    31    19    14   ar
    32    11     4    1
    33    10     6    1
    34    28    23   ar
    35     1    12    1
@<TRIPOS>MOLECULE
*****
 32 35 0 0 0
SMALL
GASTEIGER

@<TRIPOS>ATOM
      1 N          65.2232   91.8458   12.5476 N.am    1  UNL1       -0.2680
      2 C          64.1730   91.1456   11.7371 C.2     1  UNL1        0.3077
      3 O          63.4528   91.8817   10.6465 O.2     1  UNL1       -0.2522
      4 N          63.8431   89.7094   12.0173 N.am    1  UNL1       -0.2640
      5 C          64.4761   88.8485   13.0700 C.3     1  UNL1        0.0950
      6 C          63.8465   87.4890   12.9972 C.3     1  UNL1        0.0219
      7 C          63.8486   86.1167   13.6028 C.3     1  UNL1        0.0061
      8 C          62.8277   85.2892   12.8794 C.3     1  UNL1        0.0224
      9 C          62.1947   86.1502   11.8267 C.3     1  UNL1        0.0061
     10 C          62.8244   87.5097   11.8995 C.3     1  UNL1        0.0219
     11 C          62.8223   88.8820   11.2939 C.3     1  UNL1        0.0950
     12 H          65.6959   91.3627   13.2635 H       1  UNL1        0.1564
     13 C          65.2470   95.9084    9.3080 C.3     1  UNL1        0.0521
     14 C          65.5651   95.3133   10.6477 C.ar    1  UNL1        0.0606
     15 C          65.2351   93.8771   10.9279 C.ar    1  UNL1        0.0295
     16 C          65.5531   93.2821   12.2676 C.ar    1  UNL1        0.0553
     17 C          66.2011   94.1231   13.3271 C.ar    1  UNL1        0.0466
     18 C          66.5310   95.5593   13.0470 C.ar    1  UNL1        0.1008
     19 N          66.2130   96.1544   11.7073 N.ar    1  UNL1       -0.2480
     20 C          66.5191   93.5281   14.6668 C.2     1  UNL1        0.0756
     21 O          67.8516   93.7869   15.3052 O.co2   1  UNL1       -0.5445
     22 O          65.5046   92.6742   15.3681 O.co2   1  UNL1       -0.5445
     23 C          62.4978   83.8531   13.1595 C.ar    1  UNL1       -0.0186
     24 C          62.4058   82.8706   12.0299 C.ar    1  UNL1       -0.0043
     25 C          62.0759   81.4343   12.3099 C.ar    1  UNL1       -0.0003
     26 C          61.8380   80.9806   13.7197 C.ar    1  UNL1       -0.0001
     27 C          61.9300   81.9632   14.8495 C.ar    1  UNL1        0.0035
     28 C          62.2599   83.3993   14.5694 C.ar    1  UNL1        0.0675
     29 C          62.3519   84.3819   15.6990 C.3     1  UNL1        0.4183
     30 F          62.4439   85.3644   16.8287 F       1  UNL1       -0.1659
     31 F          63.7662   83.9535   15.9564 F       1  UNL1       -0.1659
     32 F          60.9376   84.8102   15.4416 F       1  UNL1       -0.1659
@<TRIPOS>UNITY_ATOM_ATTR
21 1
charge -1
@<TRIPOS>BOND
     1    13    14    1
     2    14    15   ar
     3    15    16   ar
     4    16     1    1
     5     1     2   am
     6     2     3    2
     7     2     4   am
     8     4     5    1
     9     6     5    1
    10     6     7    1
    11     7     8    1
    12     8    23    1
    13    23    24   ar
    14    24    25   ar
    15    25    26   ar
    16    26    27   ar
    17    27    28   ar
    18    28    29    1
    19    29    30    1
    20    29    31    1
    21    29    32    1
    22     8     9    1
    23    10     9    1
    24    10    11    1
    25    16    17   ar
    26    17    20    1
    27    20    21   ar
    28    20    22   ar
    29    17    18   ar
    30    18    19   ar
    31    19    14   ar
    32    11     4    1
    33    10     6    1
    34    28    23   ar
    35     1    12    1
@<TRIPOS>MOLECULE
*****
 32 35 0 0 0
SMALL
GASTEIGER

@<TRIPOS>ATOM
      1 N          63.6468   86.6007   13.8000 N.am    1  UNL1       -0.2680
      2 C          63.0279   87.3430   12.6529 C.2     1  UNL1        0.3077
      3 O          61.8756   86.7413   11.9045 O.2     1  UNL1       -0.2522
      4 N          63.5613   88.6871   12.2542 N.am    1  UNL1       -0.2640
      5 C          64.7022   89.4114   12.9052 C.3     1  UNL1        0.0950
      6 C          64.8934   90.7148   12.1878 C.3     1  UNL1        0.0219
      7 C          65.7167   91.9680   12.1468 C.3     1  UNL1        0.0061
      8 C          65.2029   92.8238   11.0271 C.3     1  UNL1        0.0224
      9 C          64.0620   92.0994   10.3761 C.3     1  UNL1        0.0061
     10 C          63.8708   90.7960   11.0935 C.3     1  UNL1        0.0219
     11 C          63.0475   89.5428   11.1345 C.3     1  UNL1        0.0950
     12 H          64.4031   86.9956   14.2912 H       1  UNL1        0.1564
     13 C          62.4144   81.7040   12.5738 C.3     1  UNL1        0.0521
     14 C          62.4972   82.8082   13.5856 C.ar    1  UNL1        0.0606
     15 C          63.0306   84.1523   13.1870 C.ar    1  UNL1        0.0295
     16 C          63.1134   85.2566   14.1988 C.ar    1  UNL1        0.0553
     17 C          62.6630   85.0168   15.6093 C.ar    1  UNL1        0.0466
     18 C          62.1297   83.6727   16.0080 C.ar    1  UNL1        0.1008
     19 N          62.0468   82.5684   14.9961 N.ar    1  UNL1       -0.2480
     20 C          62.7459   86.1210   16.6211 C.2     1  UNL1        0.0756
     21 O          62.1423   85.9380   17.9821 O.co2   1  UNL1       -0.5445
     22 O          63.4323   87.4082   16.2719 O.co2   1  UNL1       -0.5445
     23 C          65.7363   94.1677   10.6284 C.ar    1  UNL1       -0.0186
     24 C          64.9649   95.4100   10.9625 C.ar    1  UNL1       -0.0043
     25 C          65.4983   96.7542   10.5638 C.ar    1  UNL1       -0.0003
     26 C          66.8030   96.8559    9.8310 C.ar    1  UNL1       -0.0001
     27 C          67.5745   95.6136    9.4968 C.ar    1  UNL1        0.0035
     28 C          67.0411   94.2696    9.8955 C.ar    1  UNL1        0.0675
     29 C          67.8125   93.0273    9.5613 C.3     1  UNL1        0.4183
     30 F          68.5839   91.7850    9.2271 F       1  UNL1       -0.1659
     31 F          67.9690   92.7312   11.0234 F       1  UNL1       -0.1659
     32 F          67.6561   93.3234    8.0992 F       1  UNL1       -0.1659
@<TRIPOS>UNITY_ATOM_ATTR
21 1
charge -1
@<TRIPOS>BOND
     1    13    14    1
     2    14    15   ar
     3    15    16   ar
     4    16     1    1
     5     1     2   am
     6     2     3    2
     7     2     4   am
     8     4     5    1
     9     6     5    1
    10     6     7    1
    11     7     8    1
    12     8    23    1
    13    23    24   ar
    14    24    25   ar
    15    25    26   ar
    16    26    27   ar
    17    27    28   ar
    18    28    29    1
    19    29    30    1
    20    29    31    1
    21    29    32    1
    22     8     9    1
    23    10     9    1
    24    10    11    1
    25    16    17   ar
    26    17    20    1
    27    20    21   ar
    28    20    22   ar
    29    17    18   ar
    30    18    19   ar
    31    19    14   ar
    32    11     4    1
    33    10     6    1
    34    28    23   ar
    35     1    12    1
@<TRIPOS>MOLECULE
*****
 32 35 0 0 0
SMALL
GASTEIGER

@<TRIPOS>ATOM
      1 N          63.3557   86.1190   13.4917 N.am    1  UNL1       -0.2680
      2 C          62.7922   86.9040   12.3444 C.2     1  UNL1        0.3077
      3 O          61.7664   86.2833   11.4430 O.2     1  UNL1       -0.2522
      4 N          63.2546   88.3096   12.0985 N.am    1  UNL1       -0.2640
      5 C          64.2687   89.0590   12.9108 C.3     1  UNL1        0.0950
      6 C          64.4249   90.4251   12.3114 C.3     1  UNL1        0.0219
      7 C          65.1482   91.7326   12.4430 C.3     1  UNL1        0.0061
      8 C          64.6777   92.6356   11.3415 C.3     1  UNL1        0.0224
      9 C          63.6636   91.8861   10.5291 C.3     1  UNL1        0.0061
     10 C          63.5074   90.5200   11.1286 C.3     1  UNL1        0.0219
     11 C          62.7841   89.2125   10.9970 C.3     1  UNL1        0.0950
     12 H          64.0289   86.5263   14.0833 H       1  UNL1        0.1564
     13 C          62.5487   81.2817   11.7742 C.3     1  UNL1        0.0521
     14 C          62.4898   82.2947   12.8789 C.ar    1  UNL1        0.0606
     15 C          62.9522   83.7004   12.6330 C.ar    1  UNL1        0.0295
     16 C          62.8933   84.7133   13.7377 C.ar    1  UNL1        0.0553
     17 C          62.3721   84.3208   15.0883 C.ar    1  UNL1        0.0466
     18 C          61.9098   82.9151   15.3342 C.ar    1  UNL1        0.1008
     19 N          61.9687   81.9022   14.2295 N.ar    1  UNL1       -0.2480
     20 C          62.3133   85.3338   16.1930 C.2     1  UNL1        0.0756
     21 O          63.5819   85.8775   16.7804 O.co2   1  UNL1       -0.5445
     22 O          60.9858   85.8030   16.7103 O.co2   1  UNL1       -0.5445
     23 C          65.1401   94.0411   11.0956 C.ar    1  UNL1       -0.0186
     24 C          64.4802   94.8732   10.0363 C.ar    1  UNL1       -0.0043
     25 C          64.9426   96.2788    9.7903 C.ar    1  UNL1       -0.0003
     26 C          66.0648   96.8524   10.6037 C.ar    1  UNL1       -0.0001
     27 C          66.7247   96.0202   11.6631 C.ar    1  UNL1        0.0035
     28 C          66.2624   94.6147   11.9090 C.ar    1  UNL1        0.0675
     29 C          66.9222   93.7826   12.9683 C.3     1  UNL1        0.4183
     30 F          67.5820   92.9505   14.0276 F       1  UNL1       -0.1659
     31 F          67.6093   92.9759   11.9067 F       1  UNL1       -0.1659
     32 F          66.2351   94.5893   14.0300 F       1  UNL1       -0.1659
@<TRIPOS>UNITY_ATOM_ATTR
21 1
charge -1
@<TRIPOS>BOND
     1    13    14    1
     2    14    15   ar
     3    15    16   ar
     4    16     1    1
     5     1     2   am
     6     2     3    2
     7     2     4   am
     8     4     5    1
     9     6     5    1
    10     6     7    1
    11     7     8    1
    12     8    23    1
    13    23    24   ar
    14    24    25   ar
    15    25    26   ar
    16    26    27   ar
    17    27    28   ar
    18    28    29    1
    19    29    30    1
    20    29    31    1
    21    29    32    1
    22     8     9    1
    23    10     9    1
    24    10    11    1
    25    16    17   ar
    26    17    20    1
    27    20    21   ar
    28    20    22   ar
    29    17    18   ar
    30    18    19   ar
    31    19    14   ar
    32    11     4    1
    33    10     6    1
    34    28    23   ar
    35     1    12    1
