@<TRIPOS>MOLECULE
*****
 24 27 0 0 0
SMALL
GASTEIGER

@<TRIPOS>ATOM
      1 C          62.1486   85.6977    9.3474 C.2     1  UNL1        0.1356
      2 C          63.1005   84.5410    9.2688 C.2     1  UNL1        0.0519
      3 C          63.6096   83.9019   10.5267 C.2     1  UNL1        0.0700
      4 N          64.5487   82.7560   10.7612 N.2     1  UNL1       -0.2475
      5 C          64.6863   82.5653   12.2426 C.2     1  UNL1        0.1013
      6 C          63.8323   83.5933   12.9237 C.2     1  UNL1        0.0817
      7 C          63.1669   84.4194   11.8632 C.3     1  UNL1        0.0921
      8 C          62.2150   85.5761   11.9417 C.2     1  UNL1       -0.0171
      9 C          61.7059   86.2151   10.6838 C.2     1  UNL1        0.0086
     10 C          60.7540   87.3718   10.7625 C.3     1  UNL1        0.0339
     11 C          60.3812   85.8317    7.4478 C.3     1  UNL1        0.2525
     12 O          61.6394   86.3368    8.0895 O.2     1  UNL1       -0.4717
     13 C          63.6719   83.7651   14.4052 C.2     1  UNL1        0.3394
     14 O          63.8185   82.5834   15.3174 O.2     1  UNL1       -0.2452
     15 O          63.3650   85.1185   14.9744 O.3     1  UNL1       -0.4456
     16 C          64.4325   86.1710   15.0238 C.3     1  UNL1        0.2087
     17 C          64.0564   87.6137   15.1887 C.3     1  UNL1        0.0445
     18 C          63.4589   88.0901   16.4795 C.3     1  UNL1        0.0210
     19 C          63.0827   89.5328   16.6444 C.3     1  UNL1        0.0722
     20 N          63.3041   90.4991   15.5186 N.3     1  UNL1       -0.2727
     21 C          63.9016   90.0226   14.2279 C.3     1  UNL1        0.0722
     22 C          64.2778   88.5799   14.0629 C.3     1  UNL1        0.0210
     23 C          63.5261   89.7181   15.3813 C.3     1  UNL1        0.0722
     24 C          63.8662   88.4136   15.2322 C.3     1  UNL1        0.0210
@<TRIPOS>BOND
     1    11    12    1
     2    12     1    1
     3     1     2    2
     4     2     3    1
     5     3     4    2
     6     4     5    1
     7     5     6    2
     8     6    13    1
     9    13    14    2
    10    13    15    1
    11    15    16    1
    12    16    17    1
    13    17    18    1
    14    18    19    1
    15    19    20    1
    16    20    21    1
    17    21    22    1
    18    20    23    1
    19    23    24    1
    20     6     7    1
    21     7     8    1
    22     8     9    2
    23     9    10    1
    24     9     1    1
    25     7     3    1
    26    22    17    1
    27    24    17    1
@<TRIPOS>MOLECULE
*****
 24 27 0 0 0
SMALL
GASTEIGER

@<TRIPOS>ATOM
      1 C          66.5238   92.5919   13.8120 C.2     1  UNL1        0.1356
      2 C          66.2216   91.3609   14.6140 C.2     1  UNL1        0.0519
      3 C          65.1538   90.4116   14.1572 C.2     1  UNL1        0.0700
      4 N          64.6381   89.1274   14.7358 N.2     1  UNL1       -0.2475
      5 C          63.5538   88.6155   13.8346 C.2     1  UNL1        0.1013
      6 C          63.3993   89.5833   12.6991 C.2     1  UNL1        0.0817
      7 C          64.3882   90.6935   12.8985 C.3     1  UNL1        0.0921
      8 C          64.6905   91.9245   12.0965 C.2     1  UNL1       -0.0171
      9 C          65.7583   92.8737   12.5533 C.2     1  UNL1        0.0086
     10 C          66.0605   94.1048   11.7512 C.3     1  UNL1        0.0339
     11 C          67.9844   93.5884   15.7157 C.3     1  UNL1        0.2525
     12 O          67.5917   93.5412   14.2688 O.2     1  UNL1       -0.4717
     13 C          62.4268   89.4623   11.5635 C.2     1  UNL1        0.3394
     14 O          62.8058   89.9492   10.1963 O.2     1  UNL1       -0.2452
     15 O          61.0751   88.8544   11.7952 O.3     1  UNL1       -0.4456
     16 C          60.5764   87.7677   10.8895 C.3     1  UNL1        0.2087
     17 C          61.4946   86.6561   10.4755 C.3     1  UNL1        0.0445
     18 C          62.0015   86.5881    9.0654 C.3     1  UNL1        0.0210
     19 C          62.9197   85.4765    8.6512 C.3     1  UNL1        0.0722
     20 N          63.3309   84.4330    9.6473 N.3     1  UNL1       -0.2727
     21 C          62.8240   84.5010   11.0574 C.3     1  UNL1        0.0722
     22 C          61.9058   85.6126   11.4715 C.3     1  UNL1        0.0210
     23 C          62.8260   85.0231    9.9210 C.3     1  UNL1        0.0722
     24 C          61.9958   86.0282   10.2953 C.3     1  UNL1        0.0210
@<TRIPOS>BOND
     1    11    12    1
     2    12     1    1
     3     1     2    2
     4     2     3    1
     5     3     4    2
     6     4     5    1
     7     5     6    2
     8     6    13    1
     9    13    14    2
    10    13    15    1
    11    15    16    1
    12    16    17    1
    13    17    18    1
    14    18    19    1
    15    19    20    1
    16    20    21    1
    17    21    22    1
    18    20    23    1
    19    23    24    1
    20     6     7    1
    21     7     8    1
    22     8     9    2
    23     9    10    1
    24     9     1    1
    25     7     3    1
    26    22    17    1
    27    24    17    1
@<TRIPOS>MOLECULE
*****
 24 27 0 0 0
SMALL
GASTEIGER

@<TRIPOS>ATOM
      1 C          66.0631   93.1372   12.6977 C.2     1  UNL1        0.1356
      2 C          65.0011   92.5175   11.8385 C.2     1  UNL1        0.0519
      3 C          64.3449   91.2375   12.2636 C.2     1  UNL1        0.0700
      4 N          63.2760   90.3984   11.6284 N.2     1  UNL1       -0.2475
      5 C          63.0212   89.2194   12.5201 C.2     1  UNL1        0.1013
      6 C          63.9325   89.3299   13.7064 C.2     1  UNL1        0.0817
      7 C          64.7506   90.5771   13.5479 C.3     1  UNL1        0.0921
      8 C          65.8125   91.1968   14.4070 C.2     1  UNL1       -0.0171
      9 C          66.4688   92.4769   13.9819 C.2     1  UNL1        0.0086
     10 C          67.5308   93.0966   14.8412 C.3     1  UNL1        0.0339
     11 C          66.1938   95.1722   11.0877 C.3     1  UNL1        0.2525
     12 O          66.7194   94.4174   12.2726 O.2     1  UNL1       -0.4717
     13 C          64.0117   88.3629   14.8503 C.2     1  UNL1        0.3394
     14 O          63.3686   88.6997   16.1630 O.2     1  UNL1       -0.2452
     15 O          64.7341   87.0591   14.6817 O.3     1  UNL1       -0.4456
     16 C          63.9788   85.7663   14.7713 C.3     1  UNL1        0.2087
     17 C          63.7754   84.9297   13.5430 C.3     1  UNL1        0.0445
     18 C          64.5590   83.6638   13.3596 C.3     1  UNL1        0.0210
     19 C          64.3557   82.8272   12.1313 C.3     1  UNL1        0.0722
     20 N          63.3687   83.2565   11.0864 N.3     1  UNL1       -0.2727
     21 C          62.5852   84.5223   11.2698 C.3     1  UNL1        0.0722
     22 C          62.7885   85.3590   12.4981 C.3     1  UNL1        0.0210
     23 C          63.4458   83.7478   11.7427 C.3     1  UNL1        0.0722
     24 C          63.6297   84.5042   12.8533 C.3     1  UNL1        0.0210
@<TRIPOS>BOND
     1    11    12    1
     2    12     1    1
     3     1     2    2
     4     2     3    1
     5     3     4    2
     6     4     5    1
     7     5     6    2
     8     6    13    1
     9    13    14    2
    10    13    15    1
    11    15    16    1
    12    16    17    1
    13    17    18    1
    14    18    19    1
    15    19    20    1
    16    20    21    1
    17    21    22    1
    18    20    23    1
    19    23    24    1
    20     6     7    1
    21     7     8    1
    22     8     9    2
    23     9    10    1
    24     9     1    1
    25     7     3    1
    26    22    17    1
    27    24    17    1
@<TRIPOS>MOLECULE
*****
 24 27 0 0 0
SMALL
GASTEIGER

@<TRIPOS>ATOM
      1 C          63.7952   83.3059   11.9882 C.2     1  UNL1        0.1356
      2 C          63.9101   83.3739   10.4941 C.2     1  UNL1        0.0519
      3 C          63.1539   84.4204    9.7306 C.2     1  UNL1        0.0700
      4 N          63.0710   84.7300    8.2653 N.2     1  UNL1       -0.2475
      5 C          62.1486   85.8999    8.0902 C.2     1  UNL1        0.1013
      6 C          61.6614   86.3133    9.4473 C.2     1  UNL1        0.0817
      7 C          62.2828   85.3989   10.4612 C.3     1  UNL1        0.0921
      8 C          62.1679   85.3309   11.9552 C.2     1  UNL1       -0.0171
      9 C          62.9241   84.2843   12.7187 C.2     1  UNL1        0.0086
     10 C          62.8091   84.2163   14.2128 C.3     1  UNL1        0.0339
     11 C          63.8170   81.1128   13.3812 C.3     1  UNL1        0.2525
     12 O          64.5514   82.2593   12.7517 O.2     1  UNL1       -0.4717
     13 C          60.7185   87.4427    9.7393 C.2     1  UNL1        0.3394
     14 O          59.4150   87.5407    9.0037 O.2     1  UNL1       -0.2452
     15 O          61.0792   88.4742   10.7670 O.3     1  UNL1       -0.4456
     16 C          62.4296   89.1260   10.7334 C.3     1  UNL1        0.2087
     17 C          63.1650   89.3942   12.0130 C.3     1  UNL1        0.0445
     18 C          63.5172   88.2587   12.9278 C.3     1  UNL1        0.0210
     19 C          64.2525   88.5268   14.2074 C.3     1  UNL1        0.0722
     20 N          64.6357   89.9305   14.5722 N.3     1  UNL1       -0.2727
     21 C          64.2836   91.0659   13.6575 C.3     1  UNL1        0.0722
     22 C          63.5482   90.7978   12.3779 C.3     1  UNL1        0.0210
     23 C          64.2334   89.8329   13.8604 C.3     1  UNL1        0.0722
     24 C          63.5685   89.5904   12.7034 C.3     1  UNL1        0.0210
@<TRIPOS>BOND
     1    11    12    1
     2    12     1    1
     3     1     2    2
     4     2     3    1
     5     3     4    2
     6     4     5    1
     7     5     6    2
     8     6    13    1
     9    13    14    2
    10    13    15    1
    11    15    16    1
    12    16    17    1
    13    17    18    1
    14    18    19    1
    15    19    20    1
    16    20    21    1
    17    21    22    1
    18    20    23    1
    19    23    24    1
    20     6     7    1
    21     7     8    1
    22     8     9    2
    23     9    10    1
    24     9     1    1
    25     7     3    1
    26    22    17    1
    27    24    17    1
@<TRIPOS>MOLECULE
*****
 24 27 0 0 0
SMALL
GASTEIGER

@<TRIPOS>ATOM
      1 C          64.6756   90.4250   13.8630 C.2     1  UNL1        0.1356
      2 C          64.4157   91.3753   12.7319 C.2     1  UNL1        0.0519
      3 C          63.5832   90.9396   11.5626 C.2     1  UNL1        0.0700
      4 N          63.1604   91.6505   10.3113 N.2     1  UNL1       -0.2475
      5 C          62.3265   90.7039    9.4998 C.2     1  UNL1        0.1013
      6 C          62.2339   89.4080   10.2495 C.2     1  UNL1        0.0817
      7 C          63.0107   89.5537   11.5245 C.3     1  UNL1        0.0921
      8 C          63.2706   88.6035   12.6556 C.2     1  UNL1       -0.0171
      9 C          64.1031   89.0391   13.8248 C.2     1  UNL1        0.0086
     10 C          64.3630   88.0888   14.9560 C.3     1  UNL1        0.0339
     11 C          66.7976   91.5922   14.8039 C.3     1  UNL1        0.2525
     12 O          65.5081   90.8606   15.0323 O.2     1  UNL1       -0.4717
     13 C          61.4945   88.1818    9.8028 C.2     1  UNL1        0.3394
     14 O          60.0470   88.2763    9.4210 O.2     1  UNL1       -0.2452
     15 O          62.2026   86.8610    9.7379 O.3     1  UNL1       -0.4456
     16 C          61.6719   85.6871   10.5061 C.3     1  UNL1        0.2087
     17 C          62.6143   84.7957   11.2594 C.3     1  UNL1        0.0445
     18 C          62.7469   84.9313   12.7474 C.3     1  UNL1        0.0210
     19 C          63.6893   84.0400   13.5007 C.3     1  UNL1        0.0722
     20 N          64.4990   83.0130   12.7660 N.3     1  UNL1       -0.2727
     21 C          64.3665   82.8774   11.2781 C.3     1  UNL1        0.0722
     22 C          63.4241   83.7688   10.5247 C.3     1  UNL1        0.0210
     23 C          63.9959   83.4788   12.3101 C.3     1  UNL1        0.0722
     24 C          63.1438   84.2848   11.6290 C.3     1  UNL1        0.0210
@<TRIPOS>BOND
     1    11    12    1
     2    12     1    1
     3     1     2    2
     4     2     3    1
     5     3     4    2
     6     4     5    1
     7     5     6    2
     8     6    13    1
     9    13    14    2
    10    13    15    1
    11    15    16    1
    12    16    17    1
    13    17    18    1
    14    18    19    1
    15    19    20    1
    16    20    21    1
    17    21    22    1
    18    20    23    1
    19    23    24    1
    20     6     7    1
    21     7     8    1
    22     8     9    2
    23     9    10    1
    24     9     1    1
    25     7     3    1
    26    22    17    1
    27    24    17    1
@<TRIPOS>MOLECULE
*****
 24 27 0 0 0
SMALL
GASTEIGER

@<TRIPOS>ATOM
      1 C          65.1285   91.5103   14.5543 C.2     1  UNL1        0.1356
      2 C          65.3558   92.0074   13.1574 C.2     1  UNL1        0.0519
      3 C          64.4076   91.6223   12.0607 C.2     1  UNL1        0.0700
      4 N          64.3751   91.9564   10.5988 N.2     1  UNL1       -0.2475
      5 C          63.1795   91.2806    9.9954 C.2     1  UNL1        0.1013
      6 C          62.4733   90.5288   11.0845 C.2     1  UNL1        0.0817
      7 C          63.2323   90.7400   12.3609 C.3     1  UNL1        0.0921
      8 C          63.0050   90.2429   13.7578 C.2     1  UNL1       -0.0171
      9 C          63.9532   90.6281   14.8544 C.2     1  UNL1        0.0086
     10 C          63.7259   90.1309   16.2513 C.3     1  UNL1        0.0339
     11 C          67.5499   91.9667   15.3781 C.3     1  UNL1        0.2525
     12 O          66.0766   91.8955   15.6510 O.2     1  UNL1       -0.4717
     13 C          61.2268   89.7097   10.9251 C.2     1  UNL1        0.3394
     14 O          60.3478   89.4431   12.1109 O.2     1  UNL1       -0.2452
     15 O          60.8594   89.1572    9.5798 O.3     1  UNL1       -0.4456
     16 C          60.4016   87.7345    9.4529 C.3     1  UNL1        0.2087
     17 C          61.3477   86.6119    9.7609 C.3     1  UNL1        0.0445
     18 C          62.2095   86.0383    8.6752 C.3     1  UNL1        0.0210
     19 C          63.1556   84.9158    8.9831 C.3     1  UNL1        0.0722
     20 N          63.2399   84.3668   10.3765 N.3     1  UNL1       -0.2727
     21 C          62.3782   84.9403   11.4620 C.3     1  UNL1        0.0722
     22 C          61.4321   86.0629   11.1542 C.3     1  UNL1        0.0210
     23 C          62.7064   84.9823   10.2560 C.3     1  UNL1        0.0722
     24 C          61.8510   85.9973    9.9776 C.3     1  UNL1        0.0210
@<TRIPOS>BOND
     1    11    12    1
     2    12     1    1
     3     1     2    2
     4     2     3    1
     5     3     4    2
     6     4     5    1
     7     5     6    2
     8     6    13    1
     9    13    14    2
    10    13    15    1
    11    15    16    1
    12    16    17    1
    13    17    18    1
    14    18    19    1
    15    19    20    1
    16    20    21    1
    17    21    22    1
    18    20    23    1
    19    23    24    1
    20     6     7    1
    21     7     8    1
    22     8     9    2
    23     9    10    1
    24     9     1    1
    25     7     3    1
    26    22    17    1
    27    24    17    1
@<TRIPOS>MOLECULE
*****
 24 27 0 0 0
SMALL
GASTEIGER

@<TRIPOS>ATOM
      1 C          61.6329   87.1115   10.3348 C.2     1  UNL1        0.1356
      2 C          62.3971   86.5086   11.4761 C.2     1  UNL1        0.0519
      3 C          63.0913   87.3965   12.4660 C.2     1  UNL1        0.0700
      4 N          63.9137   87.0923   13.6829 N.2     1  UNL1       -0.2475
      5 C          64.3520   88.3950   14.2836 C.2     1  UNL1        0.1013
      6 C          63.8004   89.5043   13.4379 C.2     1  UNL1        0.0817
      7 C          63.0212   88.8872   12.3145 C.3     1  UNL1        0.0921
      8 C          62.2570   89.4900   11.1732 C.2     1  UNL1       -0.0171
      9 C          61.5628   88.6021   10.1834 C.2     1  UNL1        0.0086
     10 C          60.7986   89.2050    9.0421 C.3     1  UNL1        0.0339
     11 C          61.6727   85.7356    8.1313 C.3     1  UNL1        0.2525
     12 O          60.9386   86.2236    9.3449 O.2     1  UNL1       -0.4717
     13 C          63.9940   90.9729   13.6741 C.2     1  UNL1        0.3394
     14 O          63.6857   91.5634   15.0181 O.2     1  UNL1       -0.2452
     15 O          64.4960   91.8510   12.5664 O.3     1  UNL1       -0.4456
     16 C          65.8958   92.3879   12.6108 C.3     1  UNL1        0.2087
     17 C          66.5345   92.9213   11.3627 C.3     1  UNL1        0.0445
     18 C          67.6057   92.1306   10.6717 C.3     1  UNL1        0.0210
     19 C          68.2444   92.6639    9.4236 C.3     1  UNL1        0.0722
     20 N          67.8120   93.9879    8.8666 N.3     1  UNL1       -0.2727
     21 C          66.7409   94.7785    9.5577 C.3     1  UNL1        0.0722
     22 C          66.1021   94.2452   10.8058 C.3     1  UNL1        0.0210
     23 C          67.4328   93.7368    9.5531 C.3     1  UNL1        0.0722
     24 C          66.8553   93.2545   10.6816 C.3     1  UNL1        0.0210
@<TRIPOS>BOND
     1    11    12    1
     2    12     1    1
     3     1     2    2
     4     2     3    1
     5     3     4    2
     6     4     5    1
     7     5     6    2
     8     6    13    1
     9    13    14    2
    10    13    15    1
    11    15    16    1
    12    16    17    1
    13    17    18    1
    14    18    19    1
    15    19    20    1
    16    20    21    1
    17    21    22    1
    18    20    23    1
    19    23    24    1
    20     6     7    1
    21     7     8    1
    22     8     9    2
    23     9    10    1
    24     9     1    1
    25     7     3    1
    26    22    17    1
    27    24    17    1
@<TRIPOS>MOLECULE
*****
 24 27 0 0 0
SMALL
GASTEIGER

@<TRIPOS>ATOM
      1 C          63.8360   82.7678   13.3070 C.2     1  UNL1        0.1356
      2 C          64.3893   83.5747   14.4440 C.2     1  UNL1        0.0519
      3 C          64.2961   85.0716   14.4165 C.2     1  UNL1        0.0700
      4 N          64.7485   86.1233   15.3855 N.2     1  UNL1       -0.2475
      5 C          64.3817   87.4633   14.8199 C.2     1  UNL1        0.1013
      6 C          63.7026   87.2396   13.5012 C.2     1  UNL1        0.0817
      7 C          63.6497   85.7615   13.2519 C.3     1  UNL1        0.0921
      8 C          63.0964   84.9545   12.1149 C.2     1  UNL1       -0.0171
      9 C          63.1896   83.4577   12.1425 C.2     1  UNL1        0.0086
     10 C          62.6363   82.6508   11.0054 C.3     1  UNL1        0.0339
     11 C          62.7435   80.4532   13.7538 C.3     1  UNL1        0.2525
     12 O          63.9291   81.2709   13.3345 O.2     1  UNL1       -0.4717
     13 C          63.1699   88.3068   12.5916 C.2     1  UNL1        0.3394
     14 O          63.8249   89.6557   12.5540 O.2     1  UNL1       -0.2452
     15 O          61.9823   88.0251   11.7197 O.3     1  UNL1       -0.4456
     16 C          62.0374   88.3372   10.2537 C.3     1  UNL1        0.2087
     17 C          61.4657   87.3708    9.2591 C.3     1  UNL1        0.0445
     18 C          62.3163   86.2596    8.7188 C.3     1  UNL1        0.0210
     19 C          61.7447   85.2931    7.7242 C.3     1  UNL1        0.0722
     20 N          60.3224   85.4378    7.2699 N.3     1  UNL1       -0.2727
     21 C          59.4718   86.5489    7.8102 C.3     1  UNL1        0.0722
     22 C          60.0435   87.5154    8.8048 C.3     1  UNL1        0.0210
     23 C          60.5915   85.9917    7.8166 C.3     1  UNL1        0.0722
     24 C          61.1084   86.8656    8.7159 C.3     1  UNL1        0.0210
@<TRIPOS>BOND
     1    11    12    1
     2    12     1    1
     3     1     2    2
     4     2     3    1
     5     3     4    2
     6     4     5    1
     7     5     6    2
     8     6    13    1
     9    13    14    2
    10    13    15    1
    11    15    16    1
    12    16    17    1
    13    17    18    1
    14    18    19    1
    15    19    20    1
    16    20    21    1
    17    21    22    1
    18    20    23    1
    19    23    24    1
    20     6     7    1
    21     7     8    1
    22     8     9    2
    23     9    10    1
    24     9     1    1
    25     7     3    1
    26    22    17    1
    27    24    17    1
@<TRIPOS>MOLECULE
*****
 24 27 0 0 0
SMALL
GASTEIGER

@<TRIPOS>ATOM
      1 C          63.2168   82.3684   12.8134 C.2     1  UNL1        0.1356
      2 C          63.4150   82.5102   11.3333 C.2     1  UNL1        0.0519
      3 C          63.1109   83.8143   10.6575 C.2     1  UNL1        0.0700
      4 N          63.2080   84.2491    9.2251 N.2     1  UNL1       -0.2475
      5 C          62.7657   85.6801    9.1441 C.2     1  UNL1        0.1013
      6 C          62.3953   86.1298   10.5264 C.2     1  UNL1        0.0817
      7 C          62.6087   84.9766   11.4617 C.3     1  UNL1        0.0921
      8 C          62.4105   84.8348   12.9417 C.2     1  UNL1       -0.0171
      9 C          62.7146   83.5307   13.6176 C.2     1  UNL1        0.0086
     10 C          62.5164   83.3889   15.0977 C.3     1  UNL1        0.0339
     11 C          62.5629   79.9163   13.3698 C.3     1  UNL1        0.2525
     12 O          63.5209   81.0642   13.4893 O.2     1  UNL1       -0.4717
     13 C          61.8987   87.4932   10.9066 C.2     1  UNL1        0.3394
     14 O          60.6616   88.0468   10.2640 O.2     1  UNL1       -0.2452
     15 O          62.6393   88.3029   11.9293 O.3     1  UNL1       -0.4456
     16 C          62.3492   89.7667   12.0803 C.3     1  UNL1        0.2087
     17 C          63.4759   90.7568   12.0977 C.3     1  UNL1        0.0445
     18 C          63.8559   91.4827   10.8412 C.3     1  UNL1        0.0210
     19 C          64.9826   92.4728   10.8585 C.3     1  UNL1        0.0722
     20 N          65.7294   92.7369   12.1324 N.3     1  UNL1       -0.2727
     21 C          65.3494   92.0111   13.3888 C.3     1  UNL1        0.0722
     22 C          64.2227   91.0210   13.3715 C.3     1  UNL1        0.0210
     23 C          65.1191   92.1855   12.1720 C.3     1  UNL1        0.0722
     24 C          64.1003   91.2903   12.1563 C.3     1  UNL1        0.0210
@<TRIPOS>BOND
     1    11    12    1
     2    12     1    1
     3     1     2    2
     4     2     3    1
     5     3     4    2
     6     4     5    1
     7     5     6    2
     8     6    13    1
     9    13    14    2
    10    13    15    1
    11    15    16    1
    12    16    17    1
    13    17    18    1
    14    18    19    1
    15    19    20    1
    16    20    21    1
    17    21    22    1
    18    20    23    1
    19    23    24    1
    20     6     7    1
    21     7     8    1
    22     8     9    2
    23     9    10    1
    24     9     1    1
    25     7     3    1
    26    22    17    1
    27    24    17    1
