@<TRIPOS>MOLECULE
*****
 41 45 0 0 0
SMALL
GASTEIGER

@<TRIPOS>ATOM
      1 C          60.8211   87.2142    8.6655 C.3     1  UNL1        0.0337
      2 C          59.7645   86.9269    7.6403 C.3     1  UNL1        0.0220
      3 C          58.8820   88.0330    7.1426 C.3     1  UNL1        0.0689
      4 N          59.0560   89.4263    7.6701 N.3     1  UNL1       -0.2970
      5 C          60.1126   89.7137    8.6953 C.3     1  UNL1        0.0780
      6 C          60.9952   88.6076    9.1930 C.3     1  UNL1        0.0964
      7 H          58.1637   89.6986    8.0825 H       1  UNL1        0.1233
      8 C          63.4688   83.8961   10.1586 C.ar    1  UNL1        0.1387
      9 C          63.5635   84.3463    8.7309 C.ar    1  UNL1        0.0366
     10 C          62.6809   85.4523    8.2332 C.ar    1  UNL1       -0.0012
     11 C          61.7037   86.1082    9.1632 C.ar    1  UNL1       -0.0217
     12 C          61.6090   85.6580   10.5910 C.ar    1  UNL1       -0.0012
     13 C          62.4916   84.5519   11.0887 C.ar    1  UNL1        0.0366
     14 O          64.3514   82.7900   10.6563 O.3     1  UNL1       -0.4714
     15 C          63.7720   81.6856   11.4897 C.3     1  UNL1        0.2525
     16 C          63.8796   81.7388   12.9849 C.3     1  UNL1        0.2525
     17 O          64.7319   82.7857   13.6387 O.3     1  UNL1       -0.4697
     18 C          62.2701   86.7012   17.4608 C.3     1  UNL1        0.0311
     19 C          62.8855   85.7223   16.5053 C.ar    1  UNL1       -0.0200
     20 C          62.1073   84.5207   16.0577 C.ar    1  UNL1        0.0103
     21 C          62.7228   83.5418   15.1022 C.ar    1  UNL1        0.0921
     22 CL         61.9445   82.3401   14.6546 Cl      1  UNL1       -0.0791
     23 C          64.1164   83.7646   14.5942 C.ar    1  UNL1        0.1596
     24 C          64.8946   84.9662   15.0418 C.ar    1  UNL1        0.0921
     25 CL         66.2884   85.1891   14.5339 Cl      1  UNL1       -0.0791
     26 C          64.2792   85.9451   15.9973 C.ar    1  UNL1        0.0103
     27 C          62.0518   88.8949   10.2182 C.2     1  UNL1        0.2270
     28 O          63.4914   88.6041    9.9134 O.2     1  UNL1       -0.2748
     29 N          61.6688   89.4730   11.5482 N.am    1  UNL1       -0.2770
     30 C          60.2291   89.7639   11.8531 C.3     1  UNL1        0.0758
     31 C          58.9134   89.3402   12.4355 C.3     1  UNL1        0.0215
     32 C          59.0515   90.6913   11.7986 C.3     1  UNL1        0.0215
     33 C          62.7254   89.7603   12.5735 C.3     1  UNL1        0.1197
     34 C          63.7511   90.8240   12.3157 C.ar    1  UNL1       -0.0066
     35 C          63.7904   91.5220   10.9886 C.ar    1  UNL1       -0.0029
     36 C          64.8162   92.5857   10.7308 C.ar    1  UNL1       -0.0006
     37 C          65.8025   92.9514   11.8001 C.ar    1  UNL1       -0.0046
     38 C          65.7631   92.2534   13.1272 C.ar    1  UNL1       -0.0260
     39 C          66.7494   92.6191   14.1965 C.3     1  UNL1        0.0307
     40 C          64.7374   91.1897   13.3850 C.ar    1  UNL1       -0.0281
     41 C          64.6980   90.4918   14.7121 C.3     1  UNL1        0.0304
@<TRIPOS>BOND
     1    18    19    1
     2    19    20   ar
     3    20    21   ar
     4    21    22    1
     5    21    23   ar
     6    23    17    1
     7    17    16    1
     8    16    15    1
     9    15    14    1
    10    14     8    1
    11     8     9   ar
    12     9    10   ar
    13    10    11   ar
    14     1    11    1
    15     1     2    1
    16     2     3    1
    17     3     4    1
    18     4     5    1
    19     5     6    1
    20     6    27    1
    21    27    28    2
    22    27    29   am
    23    29    33    1
    24    33    34    1
    25    34    35   ar
    26    35    36   ar
    27    36    37   ar
    28    37    38   ar
    29    38    39    1
    30    38    40   ar
    31    40    41    1
    32    29    30    1
    33    30    31    1
    34    31    32    1
    35    11    12   ar
    36    12    13   ar
    37    23    24   ar
    38    24    25    1
    39    24    26   ar
    40    26    19   ar
    41    13     8   ar
    42     6     1    1
    43    40    34   ar
    44    32    30    1
    45     4     7    1
@<TRIPOS>MOLECULE
*****
 41 45 0 0 0
SMALL
GASTEIGER

@<TRIPOS>ATOM
      1 C          65.5723   91.6798   14.8565 C.3     1  UNL1        0.0337
      2 C          66.6957   92.2192   15.6912 C.3     1  UNL1        0.0220
      3 C          67.5003   93.3867   15.2017 C.3     1  UNL1        0.0689
      4 N          67.1814   94.0148   13.8774 N.3     1  UNL1       -0.2970
      5 C          66.0579   93.4754   13.0426 C.3     1  UNL1        0.0780
      6 C          65.2533   92.3079   13.5321 C.3     1  UNL1        0.0964
      7 H          68.0267   93.9510   13.3101 H       1  UNL1        0.1233
      8 C          63.1586   88.1773   16.3250 C.ar    1  UNL1        0.1387
      9 C          62.9690   89.5308   16.9432 C.ar    1  UNL1        0.0366
     10 C          63.7735   90.6983   16.4537 C.ar    1  UNL1       -0.0012
     11 C          64.7677   90.5123   15.3460 C.ar    1  UNL1       -0.0217
     12 C          64.9573   89.1588   14.7278 C.ar    1  UNL1       -0.0012
     13 C          64.1528   87.9913   15.2173 C.ar    1  UNL1        0.0366
     14 O          62.3540   87.0099   16.8146 O.3     1  UNL1       -0.4714
     15 C          62.9540   85.6350   16.8199 C.3     1  UNL1        0.2525
     16 C          62.2591   84.5108   16.1104 C.3     1  UNL1        0.2525
     17 O          63.0282   83.2862   15.7119 O.3     1  UNL1       -0.4697
     18 C          64.0004   82.1100    9.9092 C.3     1  UNL1        0.0311
     19 C          63.7574   82.4040   11.3599 C.ar    1  UNL1       -0.0200
     20 C          64.6135   83.4063   12.0757 C.ar    1  UNL1        0.0103
     21 C          64.3705   83.7003   13.5264 C.ar    1  UNL1        0.0921
     22 CL         65.2267   84.7027   14.2422 Cl      1  UNL1       -0.0791
     23 C          63.2713   82.9921   14.2613 C.ar    1  UNL1        0.1596
     24 C          62.4151   81.9899   13.5455 C.ar    1  UNL1        0.0921
     25 CL         61.3158   81.2816   14.2804 Cl      1  UNL1       -0.0791
     26 C          62.6581   81.6958   12.0948 C.ar    1  UNL1        0.0103
     27 C          64.1299   91.7685   12.6973 C.2     1  UNL1        0.2270
     28 O          62.8822   91.2604   13.3571 O.2     1  UNL1       -0.2748
     29 N          64.2541   91.7372   11.2029 N.am    1  UNL1       -0.2770
     30 C          65.5017   92.2453   10.5431 C.3     1  UNL1        0.0758
     31 C          66.2357   93.3315    9.8143 C.3     1  UNL1        0.0215
     32 C          66.9286   92.0390   10.1293 C.3     1  UNL1        0.0215
     33 C          63.1306   91.1978   10.3680 C.3     1  UNL1        0.1197
     34 C          62.6426   89.7958   10.5830 C.ar    1  UNL1       -0.0066
     35 C          63.3076   88.9180   11.6015 C.ar    1  UNL1       -0.0029
     36 C          62.8196   87.5160   11.8164 C.ar    1  UNL1       -0.0006
     37 C          61.6666   86.9917   11.0129 C.ar    1  UNL1       -0.0046
     38 C          61.0016   87.8694    9.9943 C.ar    1  UNL1       -0.0260
     39 C          59.8486   87.3452    9.1908 C.3     1  UNL1        0.0307
     40 C          61.4896   89.2714    9.7794 C.ar    1  UNL1       -0.0281
     41 C          60.8246   90.1491    8.7609 C.3     1  UNL1        0.0304
@<TRIPOS>BOND
     1    18    19    1
     2    19    20   ar
     3    20    21   ar
     4    21    22    1
     5    21    23   ar
     6    23    17    1
     7    17    16    1
     8    16    15    1
     9    15    14    1
    10    14     8    1
    11     8     9   ar
    12     9    10   ar
    13    10    11   ar
    14     1    11    1
    15     1     2    1
    16     2     3    1
    17     3     4    1
    18     4     5    1
    19     5     6    1
    20     6    27    1
    21    27    28    2
    22    27    29   am
    23    29    33    1
    24    33    34    1
    25    34    35   ar
    26    35    36   ar
    27    36    37   ar
    28    37    38   ar
    29    38    39    1
    30    38    40   ar
    31    40    41    1
    32    29    30    1
    33    30    31    1
    34    31    32    1
    35    11    12   ar
    36    12    13   ar
    37    23    24   ar
    38    24    25    1
    39    24    26   ar
    40    26    19   ar
    41    13     8   ar
    42     6     1    1
    43    40    34   ar
    44    32    30    1
    45     4     7    1
@<TRIPOS>MOLECULE
*****
 41 45 0 0 0
SMALL
GASTEIGER

@<TRIPOS>ATOM
      1 C          65.5600   91.6866   14.8665 C.3     1  UNL1        0.0337
      2 C          66.6789   92.2318   15.7035 C.3     1  UNL1        0.0220
      3 C          67.4829   93.3991   15.2125 C.3     1  UNL1        0.0689
      4 N          67.1678   94.0211   13.8844 N.3     1  UNL1       -0.2970
      5 C          66.0488   93.4759   13.0474 C.3     1  UNL1        0.0780
      6 C          65.2449   92.3086   13.5384 C.3     1  UNL1        0.0964
      7 H          68.0155   93.9570   13.3207 H       1  UNL1        0.1233
      8 C          63.1482   88.1847   16.3397 C.ar    1  UNL1        0.1387
      9 C          64.1366   87.9995   15.2268 C.ar    1  UNL1        0.0366
     10 C          64.9405   89.1668   14.7357 C.ar    1  UNL1       -0.0012
     11 C          64.7560   90.5193   15.3576 C.ar    1  UNL1       -0.0217
     12 C          63.7676   90.7045   16.4706 C.ar    1  UNL1       -0.0012
     13 C          62.9636   89.5372   16.9617 C.ar    1  UNL1        0.0366
     14 O          62.3443   87.0174   16.8308 O.3     1  UNL1       -0.4714
     15 C          62.9387   85.6402   16.8211 C.3     1  UNL1        0.2525
     16 C          62.2464   84.5297   16.0880 C.3     1  UNL1        0.2525
     17 O          63.0102   83.3000   15.6949 O.3     1  UNL1       -0.4697
     18 C          64.0128   82.1158    9.8990 C.3     1  UNL1        0.0311
     19 C          63.7621   82.4118   11.3480 C.ar    1  UNL1       -0.0200
     20 C          62.6473   81.7182   12.0733 C.ar    1  UNL1        0.0103
     21 C          62.3967   82.0143   13.5223 C.ar    1  UNL1        0.0921
     22 CL         61.2818   81.3206   14.2476 Cl      1  UNL1       -0.0791
     23 C          63.2608   83.0040   14.2460 C.ar    1  UNL1        0.1596
     24 C          64.3756   83.6976   13.5207 C.ar    1  UNL1        0.0921
     25 CL         65.2398   84.6873   14.2444 Cl      1  UNL1       -0.0791
     26 C          64.6263   83.4015   12.0717 C.ar    1  UNL1        0.0103
     27 C          64.1259   91.7634   12.7014 C.2     1  UNL1        0.2270
     28 O          62.8796   91.2490   13.3587 O.2     1  UNL1       -0.2748
     29 N          64.2533   91.7326   11.2072 N.am    1  UNL1       -0.2770
     30 C          65.4997   92.2470   10.5500 C.3     1  UNL1        0.0758
     31 C          66.9255   92.0444   10.1307 C.3     1  UNL1        0.0215
     32 C          66.2325   93.3405    9.8309 C.3     1  UNL1        0.0215
     33 C          63.1343   91.1873   10.3701 C.3     1  UNL1        0.1197
     34 C          62.6542   89.7823   10.5832 C.ar    1  UNL1       -0.0066
     35 C          63.3260   88.9059   11.5983 C.ar    1  UNL1       -0.0029
     36 C          62.8458   87.5009   11.8113 C.ar    1  UNL1       -0.0006
     37 C          61.6938   86.9723   11.0092 C.ar    1  UNL1       -0.0046
     38 C          61.0220   87.8487    9.9940 C.ar    1  UNL1       -0.0260
     39 C          59.8700   87.3201    9.1919 C.3     1  UNL1        0.0307
     40 C          61.5021   89.2537    9.7810 C.ar    1  UNL1       -0.0281
     41 C          60.8303   90.1301    8.7658 C.3     1  UNL1        0.0304
@<TRIPOS>BOND
     1    18    19    1
     2    19    20   ar
     3    20    21   ar
     4    21    22    1
     5    21    23   ar
     6    23    17    1
     7    17    16    1
     8    16    15    1
     9    15    14    1
    10    14     8    1
    11     8     9   ar
    12     9    10   ar
    13    10    11   ar
    14     1    11    1
    15     1     2    1
    16     2     3    1
    17     3     4    1
    18     4     5    1
    19     5     6    1
    20     6    27    1
    21    27    28    2
    22    27    29   am
    23    29    33    1
    24    33    34    1
    25    34    35   ar
    26    35    36   ar
    27    36    37   ar
    28    37    38   ar
    29    38    39    1
    30    38    40   ar
    31    40    41    1
    32    29    30    1
    33    30    31    1
    34    31    32    1
    35    11    12   ar
    36    12    13   ar
    37    23    24   ar
    38    24    25    1
    39    24    26   ar
    40    26    19   ar
    41    13     8   ar
    42     6     1    1
    43    40    34   ar
    44    32    30    1
    45     4     7    1
@<TRIPOS>MOLECULE
*****
 41 45 0 0 0
SMALL
GASTEIGER

@<TRIPOS>ATOM
      1 C          60.6345   88.9188    9.2850 C.3     1  UNL1        0.0337
      2 C          60.1010   89.7181    8.1332 C.3     1  UNL1        0.0220
      3 C          59.2064   89.0681    7.1197 C.3     1  UNL1        0.0689
      4 N          58.8453   87.6188    7.2580 N.3     1  UNL1       -0.2970
      5 C          59.3788   86.8195    8.4097 C.3     1  UNL1        0.0780
      6 C          60.2734   87.4695    9.4232 C.3     1  UNL1        0.0964
      7 H          59.1603   87.1543    6.4062 H       1  UNL1        0.1233
      8 C          63.3184   90.8688   12.3254 C.ar    1  UNL1        0.1387
      9 C          63.8320   90.5827   10.9455 C.ar    1  UNL1        0.0366
     10 C          62.9374   89.9327    9.9320 C.ar    1  UNL1       -0.0012
     11 C          61.5291   89.5688   10.2984 C.ar    1  UNL1       -0.0217
     12 C          61.0154   89.8549   11.6784 C.ar    1  UNL1       -0.0012
     13 C          61.9100   90.5049   12.6919 C.ar    1  UNL1        0.0366
     14 O          64.2130   91.5188   13.3389 O.3     1  UNL1       -0.4714
     15 C          65.1387   92.6236   12.9233 C.3     1  UNL1        0.2525
     16 C          66.2923   92.3317   12.0101 C.3     1  UNL1        0.2525
     17 O          67.2835   93.4098   11.6856 O.3     1  UNL1       -0.4697
     18 C          66.4923   96.8512    6.8348 C.3     1  UNL1        0.0311
     19 C          66.6901   95.9908    8.0475 C.ar    1  UNL1       -0.0200
     20 C          66.2176   96.4661    9.3894 C.ar    1  UNL1        0.0103
     21 C          66.4154   95.6058   10.6021 C.ar    1  UNL1        0.0921
     22 CL         65.9428   96.0811   11.9441 Cl      1  UNL1       -0.0791
     23 C          67.0857   94.2701   10.4729 C.ar    1  UNL1        0.1596
     24 C          67.5582   93.7949    9.1310 C.ar    1  UNL1        0.0921
     25 CL         68.2285   92.4592    9.0017 Cl      1  UNL1       -0.0791
     26 C          67.3604   94.6552    7.9183 C.ar    1  UNL1        0.0103
     27 C          60.8069   86.6702   10.5749 C.2     1  UNL1        0.2270
     28 O          60.2367   86.8620   11.9490 O.2     1  UNL1       -0.2748
     29 N          61.9106   85.6791   10.3526 N.am    1  UNL1       -0.2770
     30 C          62.4809   85.4873    8.9785 C.3     1  UNL1        0.0758
     31 C          63.4997   85.8366    7.9345 C.3     1  UNL1        0.0215
     32 C          62.4497   84.8058    7.6427 C.3     1  UNL1        0.0215
     33 C          62.4442   84.8798   11.5043 C.3     1  UNL1        0.1197
     34 C          63.0535   85.5783   12.6836 C.ar    1  UNL1       -0.0066
     35 C          63.4651   87.0164   12.5731 C.ar    1  UNL1       -0.0029
     36 C          64.0745   87.7149   13.7525 C.ar    1  UNL1       -0.0006
     37 C          64.2722   86.9753   15.0423 C.ar    1  UNL1       -0.0046
     38 C          63.8605   85.5371   15.1529 C.ar    1  UNL1       -0.0260
     39 C          64.0582   84.7974   16.4427 C.3     1  UNL1        0.0307
     40 C          63.2512   84.8386   13.9736 C.ar    1  UNL1       -0.0281
     41 C          62.8396   83.4004   14.0841 C.3     1  UNL1        0.0304
@<TRIPOS>BOND
     1    18    19    1
     2    19    20   ar
     3    20    21   ar
     4    21    22    1
     5    21    23   ar
     6    23    17    1
     7    17    16    1
     8    16    15    1
     9    15    14    1
    10    14     8    1
    11     8     9   ar
    12     9    10   ar
    13    10    11   ar
    14     1    11    1
    15     1     2    1
    16     2     3    1
    17     3     4    1
    18     4     5    1
    19     5     6    1
    20     6    27    1
    21    27    28    2
    22    27    29   am
    23    29    33    1
    24    33    34    1
    25    34    35   ar
    26    35    36   ar
    27    36    37   ar
    28    37    38   ar
    29    38    39    1
    30    38    40   ar
    31    40    41    1
    32    29    30    1
    33    30    31    1
    34    31    32    1
    35    11    12   ar
    36    12    13   ar
    37    23    24   ar
    38    24    25    1
    39    24    26   ar
    40    26    19   ar
    41    13     8   ar
    42     6     1    1
    43    40    34   ar
    44    32    30    1
    45     4     7    1
@<TRIPOS>MOLECULE
*****
 41 45 0 0 0
SMALL
GASTEIGER

@<TRIPOS>ATOM
      1 C          60.5638   88.6428    9.2939 C.3     1  UNL1        0.0337
      2 C          59.8080   89.3456    8.2055 C.3     1  UNL1        0.0220
      3 C          58.9736   88.5557    7.2412 C.3     1  UNL1        0.0689
      4 N          58.8950   87.0630    7.3654 N.3     1  UNL1       -0.2970
      5 C          59.6508   86.3601    8.4539 C.3     1  UNL1        0.0780
      6 C          60.4852   87.1500    9.4181 C.3     1  UNL1        0.0964
      7 H          59.2245   86.6762    6.4810 H       1  UNL1        0.1233
      8 C          63.0671   91.0125   12.1867 C.ar    1  UNL1        0.1387
      9 C          63.5887   90.7152   10.8121 C.ar    1  UNL1        0.0366
     10 C          62.7543   89.9253    9.8479 C.ar    1  UNL1       -0.0012
     11 C          61.3982   89.4327   10.2582 C.ar    1  UNL1       -0.0217
     12 C          60.8765   89.7300   11.6328 C.ar    1  UNL1       -0.0012
     13 C          61.7109   90.5199   12.5970 C.ar    1  UNL1        0.0366
     14 O          63.9015   91.8025   13.1509 O.3     1  UNL1       -0.4714
     15 C          64.6992   91.0955   14.2064 C.3     1  UNL1        0.2525
     16 C          64.0303   90.6292   15.4654 C.3     1  UNL1        0.2525
     17 O          62.9909   89.5493   15.4068 O.3     1  UNL1       -0.4697
     18 C          64.6465   83.7831   15.5072 C.3     1  UNL1        0.0311
     19 C          64.2326   85.2246   15.4821 C.ar    1  UNL1       -0.0200
     20 C          63.7652   85.8928   16.7411 C.ar    1  UNL1        0.0103
     21 C          63.3513   87.3344   16.7160 C.ar    1  UNL1        0.0921
     22 CL         62.8839   88.0025   17.9751 Cl      1  UNL1       -0.0791
     23 C          63.4048   88.1077   15.4319 C.ar    1  UNL1        0.1596
     24 C          63.8722   87.4396   14.1729 C.ar    1  UNL1        0.0921
     25 CL         63.9257   88.2130   12.8887 Cl      1  UNL1       -0.0791
     26 C          64.2861   85.9980   14.1980 C.ar    1  UNL1        0.0103
     27 C          61.2410   86.4471   10.5066 C.2     1  UNL1        0.2270
     28 O          60.8686   86.6697   11.9425 O.2     1  UNL1       -0.2748
     29 N          62.3692   85.5217   10.1591 N.am    1  UNL1       -0.2770
     30 C          62.7416   85.2992    8.7232 C.3     1  UNL1        0.0758
     31 C          63.7628   85.3370    7.6252 C.3     1  UNL1        0.0215
     32 C          62.3654   84.8759    7.3343 C.3     1  UNL1        0.0215
     33 C          63.1251   84.8188   11.2476 C.3     1  UNL1        0.1197
     34 C          63.0273   83.3286   11.3867 C.ar    1  UNL1       -0.0066
     35 C          63.5582   82.4377   10.3030 C.ar    1  UNL1       -0.0029
     36 C          63.4604   80.9473   10.4422 C.ar    1  UNL1       -0.0006
     37 C          62.8317   80.3479   11.6650 C.ar    1  UNL1       -0.0046
     38 C          62.3007   81.2388   12.7487 C.ar    1  UNL1       -0.0260
     39 C          61.6720   80.6393   13.9715 C.3     1  UNL1        0.0307
     40 C          62.3985   82.7291   12.6096 C.ar    1  UNL1       -0.0281
     41 C          61.8676   83.6199   13.6933 C.3     1  UNL1        0.0304
@<TRIPOS>BOND
     1    18    19    1
     2    19    20   ar
     3    20    21   ar
     4    21    22    1
     5    21    23   ar
     6    23    17    1
     7    17    16    1
     8    16    15    1
     9    15    14    1
    10    14     8    1
    11     8     9   ar
    12     9    10   ar
    13    10    11   ar
    14     1    11    1
    15     1     2    1
    16     2     3    1
    17     3     4    1
    18     4     5    1
    19     5     6    1
    20     6    27    1
    21    27    28    2
    22    27    29   am
    23    29    33    1
    24    33    34    1
    25    34    35   ar
    26    35    36   ar
    27    36    37   ar
    28    37    38   ar
    29    38    39    1
    30    38    40   ar
    31    40    41    1
    32    29    30    1
    33    30    31    1
    34    31    32    1
    35    11    12   ar
    36    12    13   ar
    37    23    24   ar
    38    24    25    1
    39    24    26   ar
    40    26    19   ar
    41    13     8   ar
    42     6     1    1
    43    40    34   ar
    44    32    30    1
    45     4     7    1
@<TRIPOS>MOLECULE
*****
 41 45 0 0 0
SMALL
GASTEIGER

@<TRIPOS>ATOM
      1 C          60.5375   88.5434    9.3191 C.3     1  UNL1        0.0337
      2 C          59.6954   89.1182    8.2190 C.3     1  UNL1        0.0220
      3 C          58.8487   88.2147    7.3723 C.3     1  UNL1        0.0689
      4 N          58.8441   86.7363    7.6258 N.3     1  UNL1       -0.2970
      5 C          59.6863   86.1614    8.7260 C.3     1  UNL1        0.0780
      6 C          60.5329   87.0649    9.5727 C.3     1  UNL1        0.0964
      7 H          59.1446   86.2882    6.7602 H       1  UNL1        0.1233
      8 C          63.0774   91.2539   11.8591 C.ar    1  UNL1        0.1387
      9 C          63.4676   90.9749   10.4379 C.ar    1  UNL1        0.0366
     10 C          62.6210   90.0714    9.5912 C.ar    1  UNL1       -0.0012
     11 C          61.3841   89.4469   10.1658 C.ar    1  UNL1       -0.0217
     12 C          60.9938   89.7259   11.5870 C.ar    1  UNL1       -0.0012
     13 C          61.8405   90.6295   12.4337 C.ar    1  UNL1        0.0366
     14 O          63.9241   92.1575   12.7057 O.3     1  UNL1       -0.4714
     15 C          65.3164   91.7452   13.0821 C.3     1  UNL1        0.2525
     16 C          65.5328   90.5467   13.9577 C.3     1  UNL1        0.2525
     17 O          64.6555   89.3394   13.8069 O.3     1  UNL1       -0.4697
     18 C          62.4919   86.5761   18.6734 C.3     1  UNL1        0.0311
     19 C          63.0328   87.2669   17.4568 C.ar    1  UNL1       -0.0200
     20 C          63.6525   86.4640   16.3517 C.ar    1  UNL1        0.0103
     21 C          64.1934   87.1548   15.1351 C.ar    1  UNL1        0.0921
     22 CL         64.8131   86.3518   14.0299 Cl      1  UNL1       -0.0791
     23 C          64.1146   88.6486   15.0235 C.ar    1  UNL1        0.1596
     24 C          63.4949   89.4515   16.1286 C.ar    1  UNL1        0.0921
     25 CL         63.4160   90.9453   16.0171 Cl      1  UNL1       -0.0791
     26 C          62.9540   88.7606   17.3452 C.ar    1  UNL1        0.0103
     27 C          61.3750   86.4900   10.6728 C.2     1  UNL1        0.2270
     28 O          61.0515   86.7991   12.1045 O.2     1  UNL1       -0.2748
     29 N          62.5407   85.6062   10.3412 N.am    1  UNL1       -0.2770
     30 C          62.8642   85.2971    8.9095 C.3     1  UNL1        0.0758
     31 C          63.8236   85.3354    7.7571 C.3     1  UNL1        0.0215
     32 C          62.4652   84.7236    7.5822 C.3     1  UNL1        0.0215
     33 C          63.3828   85.0312   11.4414 C.3     1  UNL1        0.1197
     34 C          62.8965   83.8414   12.2144 C.ar    1  UNL1       -0.0066
     35 C          62.2440   84.0314   13.5517 C.ar    1  UNL1       -0.0029
     36 C          61.7577   82.8414   14.3247 C.ar    1  UNL1       -0.0006
     37 C          61.9239   81.4615   13.7606 C.ar    1  UNL1       -0.0046
     38 C          62.5764   81.2716   12.4234 C.ar    1  UNL1       -0.0260
     39 C          62.7427   79.8917   11.8592 C.3     1  UNL1        0.0307
     40 C          63.0627   82.4614   11.6503 C.ar    1  UNL1       -0.0281
     41 C          63.7153   82.2714   10.3131 C.3     1  UNL1        0.0304
@<TRIPOS>BOND
     1    18    19    1
     2    19    20   ar
     3    20    21   ar
     4    21    22    1
     5    21    23   ar
     6    23    17    1
     7    17    16    1
     8    16    15    1
     9    15    14    1
    10    14     8    1
    11     8     9   ar
    12     9    10   ar
    13    10    11   ar
    14     1    11    1
    15     1     2    1
    16     2     3    1
    17     3     4    1
    18     4     5    1
    19     5     6    1
    20     6    27    1
    21    27    28    2
    22    27    29   am
    23    29    33    1
    24    33    34    1
    25    34    35   ar
    26    35    36   ar
    27    36    37   ar
    28    37    38   ar
    29    38    39    1
    30    38    40   ar
    31    40    41    1
    32    29    30    1
    33    30    31    1
    34    31    32    1
    35    11    12   ar
    36    12    13   ar
    37    23    24   ar
    38    24    25    1
    39    24    26   ar
    40    26    19   ar
    41    13     8   ar
    42     6     1    1
    43    40    34   ar
    44    32    30    1
    45     4     7    1
@<TRIPOS>MOLECULE
*****
 41 45 0 0 0
SMALL
GASTEIGER

@<TRIPOS>ATOM
      1 C          61.3053   87.8147    9.8118 C.3     1  UNL1        0.0337
      2 C          60.3476   88.0616    8.6841 C.3     1  UNL1        0.0220
      3 C          59.6654   89.3914    8.5570 C.3     1  UNL1        0.0689
      4 N          59.9409   90.4744    9.5577 N.3     1  UNL1       -0.2970
      5 C          60.8987   90.2275   10.6854 C.3     1  UNL1        0.0780
      6 C          61.5809   88.8976   10.8125 C.3     1  UNL1        0.0964
      7 H          59.0455   90.7196    9.9802 H       1  UNL1        0.1233
      8 C          63.3518   83.8251   10.1929 C.ar    1  UNL1        0.1387
      9 C          62.4515   84.3139   11.2886 C.ar    1  UNL1        0.0366
     10 C          61.7693   85.6438   11.1615 C.ar    1  UNL1       -0.0012
     11 C          61.9875   86.4848    9.9388 C.ar    1  UNL1       -0.0217
     12 C          62.8878   85.9960    8.8431 C.ar    1  UNL1       -0.0012
     13 C          63.5700   84.6662    8.9702 C.ar    1  UNL1        0.0366
     14 O          64.0340   82.4953   10.3200 O.3     1  UNL1       -0.4714
     15 C          63.4336   81.4236   11.1809 C.3     1  UNL1        0.2525
     16 C          63.6458   81.4476   12.6656 C.3     1  UNL1        0.2525
     17 O          64.5477   82.4780   13.2777 O.3     1  UNL1       -0.4697
     18 C          62.3766   86.3441   17.3200 C.3     1  UNL1        0.0311
     19 C          62.9194   85.3776   16.3094 C.ar    1  UNL1       -0.0200
     20 C          64.2914   85.5810   15.7386 C.ar    1  UNL1        0.0103
     21 C          64.8342   84.6145   14.7280 C.ar    1  UNL1        0.0921
     22 CL         66.2064   84.8180   14.1571 Cl      1  UNL1       -0.0791
     23 C          64.0049   83.4446   14.2883 C.ar    1  UNL1        0.1596
     24 C          62.6328   83.2411   14.8592 C.ar    1  UNL1        0.0921
     25 CL         61.8034   82.0711   14.4195 Cl      1  UNL1       -0.0791
     26 C          62.0900   84.2076   15.8697 C.ar    1  UNL1        0.0103
     27 C          62.5386   88.6507   11.9402 C.2     1  UNL1        0.2270
     28 O          62.3945   87.4242   12.7917 O.2     1  UNL1       -0.2748
     29 N          63.6405   89.6302   12.2164 N.am    1  UNL1       -0.2770
     30 C          63.7846   90.8567   11.3649 C.3     1  UNL1        0.0758
     31 C          64.3126   92.2468   11.1683 C.3     1  UNL1        0.0215
     32 C          63.5063   91.5908   10.0868 C.3     1  UNL1        0.0215
     33 C          64.5983   89.3833   13.3442 C.3     1  UNL1        0.1197
     34 C          64.6730   90.3488   14.4897 C.ar    1  UNL1       -0.0066
     35 C          63.6151   90.3344   15.5529 C.ar    1  UNL1       -0.0029
     36 C          63.6898   91.3000   16.6984 C.ar    1  UNL1       -0.0006
     37 C          64.8226   92.2798   16.7807 C.ar    1  UNL1       -0.0046
     38 C          65.8805   92.2942   15.7174 C.ar    1  UNL1       -0.0260
     39 C          67.0132   93.2740   15.7997 C.3     1  UNL1        0.0307
     40 C          65.8058   91.3287   14.5719 C.ar    1  UNL1       -0.0281
     41 C          66.8638   91.3431   13.5087 C.3     1  UNL1        0.0304
@<TRIPOS>BOND
     1    18    19    1
     2    19    20   ar
     3    20    21   ar
     4    21    22    1
     5    21    23   ar
     6    23    17    1
     7    17    16    1
     8    16    15    1
     9    15    14    1
    10    14     8    1
    11     8     9   ar
    12     9    10   ar
    13    10    11   ar
    14     1    11    1
    15     1     2    1
    16     2     3    1
    17     3     4    1
    18     4     5    1
    19     5     6    1
    20     6    27    1
    21    27    28    2
    22    27    29   am
    23    29    33    1
    24    33    34    1
    25    34    35   ar
    26    35    36   ar
    27    36    37   ar
    28    37    38   ar
    29    38    39    1
    30    38    40   ar
    31    40    41    1
    32    29    30    1
    33    30    31    1
    34    31    32    1
    35    11    12   ar
    36    12    13   ar
    37    23    24   ar
    38    24    25    1
    39    24    26   ar
    40    26    19   ar
    41    13     8   ar
    42     6     1    1
    43    40    34   ar
    44    32    30    1
    45     4     7    1
@<TRIPOS>MOLECULE
*****
 41 45 0 0 0
SMALL
GASTEIGER

@<TRIPOS>ATOM
      1 C          64.0033   90.3033   13.2644 C.3     1  UNL1        0.0337
      2 C          64.7111   91.6025   13.5113 C.3     1  UNL1        0.0220
      3 C          64.9349   92.5615   12.3798 C.3     1  UNL1        0.0689
      4 N          64.4508   92.2213   11.0014 N.3     1  UNL1       -0.2970
      5 C          63.7430   90.9220   10.7545 C.3     1  UNL1        0.0780
      6 C          63.5192   89.9630   11.8860 C.3     1  UNL1        0.0964
      7 H          65.2682   92.2319   10.3913 H       1  UNL1        0.1233
      8 C          63.3321   87.4263   16.6588 C.ar    1  UNL1        0.1387
      9 C          64.1162   86.9958   15.4547 C.ar    1  UNL1        0.0366
     10 C          64.3399   87.9548   14.3232 C.ar    1  UNL1       -0.0012
     11 C          63.7796   89.3443   14.3959 C.ar    1  UNL1       -0.0217
     12 C          62.9955   89.7748   15.6000 C.ar    1  UNL1       -0.0012
     13 C          62.7718   88.8158   16.7315 C.ar    1  UNL1        0.0366
     14 O          63.1084   86.4673   17.7903 O.3     1  UNL1       -0.4714
     15 C          62.4788   85.1313   17.5277 C.3     1  UNL1        0.2525
     16 C          62.3761   84.6135   16.1237 C.3     1  UNL1        0.2525
     17 O          63.0646   83.3364   15.7430 O.3     1  UNL1       -0.4697
     18 C          63.9561   82.0178    9.9580 C.3     1  UNL1        0.0311
     19 C          63.7333   82.3475   11.4043 C.ar    1  UNL1       -0.0200
     20 C          62.5771   81.7404   12.1423 C.ar    1  UNL1        0.0103
     21 C          62.3542   82.0701   13.5886 C.ar    1  UNL1        0.0921
     22 CL         61.1980   81.4630   14.3267 Cl      1  UNL1       -0.0791
     23 C          63.2875   83.0068   14.2968 C.ar    1  UNL1        0.1596
     24 C          64.4436   83.6138   13.5587 C.ar    1  UNL1        0.0921
     25 CL         65.3770   84.5506   14.2669 Cl      1  UNL1       -0.0791
     26 C          64.6665   83.2842   12.1124 C.ar    1  UNL1        0.0103
     27 C          62.8114   88.6638   11.6391 C.2     1  UNL1        0.2270
     28 O          63.5787   87.3751   11.6644 O.2     1  UNL1       -0.2748
     29 N          61.3364   88.6533   11.3670 N.am    1  UNL1       -0.2770
     30 C          60.5692   89.9420   11.3417 C.3     1  UNL1        0.0758
     31 C          60.5284   91.4254   11.1236 C.3     1  UNL1        0.0215
     32 C          59.2811   90.6905   11.5159 C.3     1  UNL1        0.0215
     33 C          60.6285   87.3540   11.1201 C.3     1  UNL1        0.1197
     34 C          60.3794   86.8907    9.7153 C.ar    1  UNL1       -0.0066
     35 C          59.1431   87.3306    8.9887 C.ar    1  UNL1       -0.0029
     36 C          58.8940   86.8673    7.5839 C.ar    1  UNL1       -0.0006
     37 C          59.8813   85.9642    6.9058 C.ar    1  UNL1       -0.0046
     38 C          61.1176   85.5244    7.6325 C.ar    1  UNL1       -0.0260
     39 C          62.1048   84.6213    6.9544 C.3     1  UNL1        0.0307
     40 C          61.3667   85.9876    9.0372 C.ar    1  UNL1       -0.0281
     41 C          62.6030   85.5478    9.7639 C.3     1  UNL1        0.0304
@<TRIPOS>BOND
     1    18    19    1
     2    19    20   ar
     3    20    21   ar
     4    21    22    1
     5    21    23   ar
     6    23    17    1
     7    17    16    1
     8    16    15    1
     9    15    14    1
    10    14     8    1
    11     8     9   ar
    12     9    10   ar
    13    10    11   ar
    14     1    11    1
    15     1     2    1
    16     2     3    1
    17     3     4    1
    18     4     5    1
    19     5     6    1
    20     6    27    1
    21    27    28    2
    22    27    29   am
    23    29    33    1
    24    33    34    1
    25    34    35   ar
    26    35    36   ar
    27    36    37   ar
    28    37    38   ar
    29    38    39    1
    30    38    40   ar
    31    40    41    1
    32    29    30    1
    33    30    31    1
    34    31    32    1
    35    11    12   ar
    36    12    13   ar
    37    23    24   ar
    38    24    25    1
    39    24    26   ar
    40    26    19   ar
    41    13     8   ar
    42     6     1    1
    43    40    34   ar
    44    32    30    1
    45     4     7    1
@<TRIPOS>MOLECULE
*****
 41 45 0 0 0
SMALL
GASTEIGER

@<TRIPOS>ATOM
      1 C          64.9476   90.5841   14.9327 C.3     1  UNL1        0.0337
      2 C          66.1061   91.1721   15.6824 C.3     1  UNL1        0.0220
      3 C          66.6661   92.5024   15.2743 C.3     1  UNL1        0.0689
      4 N          66.0676   93.2449   14.1166 N.3     1  UNL1       -0.2970
      5 C          64.9090   92.6569   13.3668 C.3     1  UNL1        0.0780
      6 C          64.3490   91.3265   13.7749 C.3     1  UNL1        0.0964
      7 H          66.8163   93.3856   13.4383 H       1  UNL1        0.1233
      8 C          63.2676   86.5930   16.1570 C.ar    1  UNL1        0.1387
      9 C          64.2040   86.6862   14.9889 C.ar    1  UNL1        0.0366
     10 C          64.7640   88.0166   14.5808 C.ar    1  UNL1       -0.0012
     11 C          64.3876   89.2537   15.3408 C.ar    1  UNL1       -0.0217
     12 C          63.4512   89.1606   16.5090 C.ar    1  UNL1       -0.0012
     13 C          62.8912   87.8302   16.9170 C.ar    1  UNL1        0.0366
     14 O          62.7076   85.2626   16.5650 O.3     1  UNL1       -0.4714
     15 C          61.9871   84.4123   15.5611 C.3     1  UNL1        0.2525
     16 C          62.5038   84.3097   14.1566 C.3     1  UNL1        0.2525
     17 O          63.6008   83.3402   13.8301 O.3     1  UNL1       -0.4697
     18 C          62.7789   79.2069    9.5592 C.3     1  UNL1        0.0311
     19 C          62.9844   80.2402   10.6270 C.ar    1  UNL1       -0.0200
     20 C          63.7505   81.4930   10.3208 C.ar    1  UNL1        0.0103
     21 C          63.9559   82.5263   11.3885 C.ar    1  UNL1        0.0921
     22 CL         64.7220   83.7791   11.0823 Cl      1  UNL1       -0.0791
     23 C          63.3954   82.3069   12.7624 C.ar    1  UNL1        0.1596
     24 C          62.6293   81.0542   13.0685 C.ar    1  UNL1        0.0921
     25 CL         62.0687   80.8347   14.4425 Cl      1  UNL1       -0.0791
     26 C          62.4239   80.0208   12.0008 C.ar    1  UNL1        0.0103
     27 C          63.1905   90.7386   13.0252 C.2     1  UNL1        0.2270
     28 O          62.1422   89.9555   13.7586 O.2     1  UNL1       -0.2748
     29 N          63.0802   90.9338   11.5420 N.am    1  UNL1       -0.2770
     30 C          64.1284   91.7169   10.8086 C.3     1  UNL1        0.0758
     31 C          65.5309   91.8439   10.2921 C.3     1  UNL1        0.0215
     32 C          64.5415   92.9462   10.0549 C.3     1  UNL1        0.0215
     33 C          61.9216   90.3458   10.7923 C.3     1  UNL1        0.1197
     34 C          61.8326   88.8618   10.5931 C.ar    1  UNL1       -0.0066
     35 C          62.6001   87.9372   11.4909 C.ar    1  UNL1       -0.0029
     36 C          62.5110   86.4531   11.2917 C.ar    1  UNL1       -0.0006
     37 C          61.6544   85.8937   10.1948 C.ar    1  UNL1       -0.0046
     38 C          60.8869   86.8183    9.2970 C.ar    1  UNL1       -0.0260
     39 C          60.0303   86.2589    8.2001 C.3     1  UNL1        0.0307
     40 C          60.9760   88.3023    9.4961 C.ar    1  UNL1       -0.0281
     41 C          60.2084   89.2269    8.5983 C.3     1  UNL1        0.0304
@<TRIPOS>BOND
     1    18    19    1
     2    19    20   ar
     3    20    21   ar
     4    21    22    1
     5    21    23   ar
     6    23    17    1
     7    17    16    1
     8    16    15    1
     9    15    14    1
    10    14     8    1
    11     8     9   ar
    12     9    10   ar
    13    10    11   ar
    14     1    11    1
    15     1     2    1
    16     2     3    1
    17     3     4    1
    18     4     5    1
    19     5     6    1
    20     6    27    1
    21    27    28    2
    22    27    29   am
    23    29    33    1
    24    33    34    1
    25    34    35   ar
    26    35    36   ar
    27    36    37   ar
    28    37    38   ar
    29    38    39    1
    30    38    40   ar
    31    40    41    1
    32    29    30    1
    33    30    31    1
    34    31    32    1
    35    11    12   ar
    36    12    13   ar
    37    23    24   ar
    38    24    25    1
    39    24    26   ar
    40    26    19   ar
    41    13     8   ar
    42     6     1    1
    43    40    34   ar
    44    32    30    1
    45     4     7    1
