@<TRIPOS>MOLECULE
*****
 34 38 0 0 0
SMALL
GASTEIGER

@<TRIPOS>ATOM
      1 C          62.9087   89.5205   12.4577 C.2     1  UNL1        0.2463
      2 O          62.4164   90.9211   12.2430 O.2     1  UNL1       -0.2730
      3 N          62.3427   88.3938   11.6453 N.am    1  UNL1       -0.2781
      4 C          61.2845   88.6676   10.6181 C.3     1  UNL1        0.0935
      5 C          60.7185   87.5407    9.8056 C.3     1  UNL1        0.0219
      6 C          61.2108   86.1402   10.0203 C.3     1  UNL1        0.0078
      7 C          62.2690   85.8665   11.0475 C.3     1  UNL1        0.0419
      8 C          62.8350   86.9932   11.8600 C.3     1  UNL1        0.0953
      9 C          62.7613   84.4659   11.2623 C.ar    1  UNL1       -0.0209
     10 C          64.0279   84.0067   10.6027 C.ar    1  UNL1       -0.0042
     11 C          64.5202   82.6062   10.8174 C.ar    1  UNL1       -0.0003
     12 C          63.7460   81.6648   11.6917 C.ar    1  UNL1       -0.0000
     13 C          62.4795   82.1240   12.3513 C.ar    1  UNL1       -0.0003
     14 C          61.9871   83.5246   12.1366 C.ar    1  UNL1       -0.0042
     15 C          63.9670   89.2467   13.4849 C.3     1  UNL1        0.1835
     16 O          61.8368   89.3945   15.5922 O.2     1  UNL1       -0.2705
     17 C          63.0677   90.2439   15.7091 C.2     1  UNL1        0.2744
     18 C          63.2334   91.1672   16.8795 C.3     1  UNL1        0.2900
     19 O          64.4643   92.0165   16.9964 O.3     1  UNL1       -0.4643
     20 C          65.5293   91.9426   15.9428 C.ar    1  UNL1        0.1537
     21 C          66.7601   92.7920   16.0596 C.ar    1  UNL1        0.0504
     22 C          67.8252   92.7181   15.0060 C.ar    1  UNL1        0.0713
     23 CL         69.0560   93.5675   15.1229 Cl      1  UNL1       -0.0813
     24 C          67.6594   91.7948   13.8354 C.ar    1  UNL1        0.0696
     25 CL         68.7245   91.7210   12.7818 Cl      1  UNL1       -0.0813
     26 C          66.4286   90.9455   13.7186 C.ar    1  UNL1        0.0302
     27 C          65.3635   91.0194   14.7723 C.ar    1  UNL1        0.0894
     28 N          64.1327   90.1700   14.6554 N.am    1  UNL1       -0.2439
     29 C          63.8933   86.7194   12.8871 C.3     1  UNL1        0.0924
     30 N          63.6896   85.6349   13.9032 N.3     1  UNL1       -0.2713
     31 C          62.4782   85.4541   14.7690 C.3     1  UNL1        0.0722
     32 C          62.7014   84.2483   15.6327 C.3     1  UNL1        0.0188
     33 C          64.0509   83.6837   15.3006 C.3     1  UNL1        0.0188
     34 C          64.6616   84.5407   14.2317 C.3     1  UNL1        0.0722
@<TRIPOS>BOND
     1    16    17    2
     2    17    18    1
     3    18    19    1
     4    19    20    1
     5    20    21   ar
     6    21    22   ar
     7    22    23    1
     8    22    24   ar
     9    24    25    1
    10    24    26   ar
    11    26    27   ar
    12    27    28    1
    13    28    15    1
    14    15     1    1
    15     1     2    2
    16     1     3   am
    17     3     4    1
    18     4     5    1
    19     5     6    1
    20     6     7    1
    21     7     9    1
    22     9    10   ar
    23    10    11   ar
    24    11    12   ar
    25    12    13   ar
    26    13    14   ar
    27     7     8    1
    28     8    29    1
    29    29    30    1
    30    30    31    1
    31    31    32    1
    32    32    33    1
    33    33    34    1
    34    28    17   am
    35     8     3    1
    36    34    30    1
    37    27    20   ar
    38    14     9   ar
@<TRIPOS>MOLECULE
*****
 34 38 0 0 0
SMALL
GASTEIGER

@<TRIPOS>ATOM
      1 C          63.6790   89.8494   14.9911 C.2     1  UNL1        0.2463
      2 O          63.5079   91.1567   15.7066 O.2     1  UNL1       -0.2730
      3 N          63.4291   88.5598   15.7152 N.am    1  UNL1       -0.2781
      4 C          63.0082   88.5773   17.1548 C.3     1  UNL1        0.0935
      5 C          62.7584   87.2876   17.8790 C.3     1  UNL1        0.0219
      6 C          62.9294   85.9804   17.1634 C.3     1  UNL1        0.0078
      7 C          63.3503   85.9629   15.7238 C.3     1  UNL1        0.0419
      8 C          63.6002   87.2525   14.9997 C.3     1  UNL1        0.0953
      9 C          63.5214   84.6557   15.0083 C.ar    1  UNL1       -0.0209
     10 C          62.3807   83.6841   14.9383 C.ar    1  UNL1       -0.0042
     11 C          62.5518   82.3769   14.2228 C.ar    1  UNL1       -0.0003
     12 C          63.8635   82.0413   13.5773 C.ar    1  UNL1       -0.0000
     13 C          65.0041   83.0128   13.6472 C.ar    1  UNL1       -0.0003
     14 C          64.8331   84.3201   14.3628 C.ar    1  UNL1       -0.0042
     15 C          64.0999   89.8319   13.5515 C.3     1  UNL1        0.1835
     16 O          63.0543   90.7008   10.8772 O.2     1  UNL1       -0.2705
     17 C          64.1053   91.5148   11.5721 C.2     1  UNL1        0.2744
     18 C          64.6334   92.7632   10.9299 C.3     1  UNL1        0.2900
     19 O          65.6843   93.5772   11.6249 O.3     1  UNL1       -0.4643
     20 C          66.2071   93.1428   12.9620 C.ar    1  UNL1        0.1537
     21 C          67.2581   93.9568   13.6569 C.ar    1  UNL1        0.0504
     22 C          67.7809   93.5224   14.9940 C.ar    1  UNL1        0.0713
     23 CL         68.8318   94.3364   15.6890 Cl      1  UNL1       -0.0813
     24 C          67.2527   92.2739   15.6363 C.ar    1  UNL1        0.0696
     25 CL         67.7755   91.8394   16.9734 Cl      1  UNL1       -0.0813
     26 C          66.2018   91.4599   14.9414 C.ar    1  UNL1        0.0302
     27 C          65.6790   91.8944   13.6042 C.ar    1  UNL1        0.0894
     28 N          64.6281   91.0804   12.9092 N.am    1  UNL1       -0.2439
     29 C          64.0211   87.2350   13.5601 C.3     1  UNL1        0.0924
     30 N          63.0250   86.8945   12.4915 N.3     1  UNL1       -0.2713
     31 C          62.7580   85.5259   11.9389 C.3     1  UNL1        0.0722
     32 C          61.6890   85.6484   10.8938 C.3     1  UNL1        0.0188
     33 C          61.2953   87.0929   10.8006 C.3     1  UNL1        0.0188
     34 C          62.1210   87.8630   11.7880 C.3     1  UNL1        0.0722
@<TRIPOS>BOND
     1    16    17    2
     2    17    18    1
     3    18    19    1
     4    19    20    1
     5    20    21   ar
     6    21    22   ar
     7    22    23    1
     8    22    24   ar
     9    24    25    1
    10    24    26   ar
    11    26    27   ar
    12    27    28    1
    13    28    15    1
    14    15     1    1
    15     1     2    2
    16     1     3   am
    17     3     4    1
    18     4     5    1
    19     5     6    1
    20     6     7    1
    21     7     9    1
    22     9    10   ar
    23    10    11   ar
    24    11    12   ar
    25    12    13   ar
    26    13    14   ar
    27     7     8    1
    28     8    29    1
    29    29    30    1
    30    30    31    1
    31    31    32    1
    32    32    33    1
    33    33    34    1
    34    28    17   am
    35     8     3    1
    36    34    30    1
    37    27    20   ar
    38    14     9   ar
@<TRIPOS>MOLECULE
*****
 34 38 0 0 0
SMALL
GASTEIGER

@<TRIPOS>ATOM
      1 C          64.2614   87.6718   14.1720 C.2     1  UNL1        0.2463
      2 O          65.0165   87.2930   15.4115 O.2     1  UNL1       -0.2730
      3 N          63.6183   86.6089   13.3313 N.am    1  UNL1       -0.2781
      4 C          63.7303   85.1672   13.7301 C.3     1  UNL1        0.0935
      5 C          63.0872   84.1044   12.8894 C.3     1  UNL1        0.0219
      6 C          62.3321   84.4832   11.6499 C.3     1  UNL1        0.0078
      7 C          62.2201   85.9249   11.2511 C.3     1  UNL1        0.0419
      8 C          62.8632   86.9877   12.0918 C.3     1  UNL1        0.0953
      9 C          61.4650   86.3037   10.0117 C.ar    1  UNL1       -0.0209
     10 C          62.0283   85.9758    8.6606 C.ar    1  UNL1       -0.0042
     11 C          61.2732   86.3546    7.4212 C.ar    1  UNL1       -0.0003
     12 C          59.9549   87.0613    7.5327 C.ar    1  UNL1       -0.0000
     13 C          59.3916   87.3892    8.8836 C.ar    1  UNL1       -0.0003
     14 C          60.1466   87.0104   10.1232 C.ar    1  UNL1       -0.0042
     15 C          64.1494   89.1134   13.7732 C.3     1  UNL1        0.1835
     16 O          61.9084   89.5072   15.7284 O.2     1  UNL1       -0.2705
     17 C          63.1224   90.3860   15.7921 C.2     1  UNL1        0.2744
     18 C          63.2159   91.4616   16.8334 C.3     1  UNL1        0.2900
     19 O          64.4299   92.3403   16.8970 O.3     1  UNL1       -0.4643
     20 C          65.5503   92.1435   15.9195 C.ar    1  UNL1        0.1537
     21 C          66.7643   93.0222   15.9831 C.ar    1  UNL1        0.0504
     22 C          67.8848   92.8253   15.0055 C.ar    1  UNL1        0.0713
     23 CL         69.0988   93.7041   15.0692 Cl      1  UNL1       -0.0813
     24 C          67.7913   91.7497   13.9642 C.ar    1  UNL1        0.0696
     25 CL         68.9118   91.5528   12.9866 Cl      1  UNL1       -0.0813
     26 C          66.5773   90.8709   13.9005 C.ar    1  UNL1        0.0302
     27 C          65.4568   91.0678   14.8782 C.ar    1  UNL1        0.0894
     28 N          64.2428   90.1891   14.8145 N.am    1  UNL1       -0.2439
     29 C          62.7512   88.4294   11.6930 C.3     1  UNL1        0.0924
     30 N          61.4215   89.1214   11.7472 N.3     1  UNL1       -0.2713
     31 C          60.9773   90.2482   10.8622 C.3     1  UNL1        0.0722
     32 C          59.5838   90.6313   11.2639 C.3     1  UNL1        0.0188
     33 C          59.1667   89.7414   12.3971 C.3     1  UNL1        0.0188
     34 C          60.3025   88.8082   12.6957 C.3     1  UNL1        0.0722
@<TRIPOS>BOND
     1    16    17    2
     2    17    18    1
     3    18    19    1
     4    19    20    1
     5    20    21   ar
     6    21    22   ar
     7    22    23    1
     8    22    24   ar
     9    24    25    1
    10    24    26   ar
    11    26    27   ar
    12    27    28    1
    13    28    15    1
    14    15     1    1
    15     1     2    2
    16     1     3   am
    17     3     4    1
    18     4     5    1
    19     5     6    1
    20     6     7    1
    21     7     9    1
    22     9    10   ar
    23    10    11   ar
    24    11    12   ar
    25    12    13   ar
    26    13    14   ar
    27     7     8    1
    28     8    29    1
    29    29    30    1
    30    30    31    1
    31    31    32    1
    32    32    33    1
    33    33    34    1
    34    28    17   am
    35     8     3    1
    36    34    30    1
    37    27    20   ar
    38    14     9   ar
@<TRIPOS>MOLECULE
*****
 34 38 0 0 0
SMALL
GASTEIGER

@<TRIPOS>ATOM
      1 C          63.9159   88.0362   13.7393 C.2     1  UNL1        0.2463
      2 O          64.7241   87.7982   14.9804 O.2     1  UNL1       -0.2730
      3 N          63.3956   86.8725   12.9486 N.am    1  UNL1       -0.2781
      4 C          63.6836   85.4710   13.3988 C.3     1  UNL1        0.0935
      5 C          63.1633   84.3074   12.6080 C.3     1  UNL1        0.0219
      6 C          62.3552   84.5453   11.3670 C.3     1  UNL1        0.0078
      7 C          62.0672   85.9469   10.9167 C.3     1  UNL1        0.0419
      8 C          62.5874   87.1105   11.7075 C.3     1  UNL1        0.0953
      9 C          61.2590   86.1848    9.6757 C.ar    1  UNL1       -0.0209
     10 C          61.7138   85.6165    8.3640 C.ar    1  UNL1       -0.0042
     11 C          60.9056   85.8545    7.1230 C.ar    1  UNL1       -0.0003
     12 C          59.6427   86.6607    7.1935 C.ar    1  UNL1       -0.0000
     13 C          59.1879   87.2290    8.5050 C.ar    1  UNL1       -0.0003
     14 C          59.9961   86.9910    9.7462 C.ar    1  UNL1       -0.0042
     15 C          63.6279   89.4377   13.2890 C.3     1  UNL1        0.1835
     16 O          63.3414   89.6061   16.2706 O.2     1  UNL1       -0.2705
     17 C          64.0705   90.6844   15.5251 C.2     1  UNL1        0.2744
     18 C          64.6564   91.8468   16.2703 C.3     1  UNL1        0.2900
     19 O          65.3855   92.9251   15.5248 O.3     1  UNL1       -0.4643
     20 C          65.5288   92.8409   14.0341 C.ar    1  UNL1        0.1537
     21 C          66.2579   93.9192   13.2886 C.ar    1  UNL1        0.0504
     22 C          66.4011   93.8350   11.7979 C.ar    1  UNL1        0.0713
     23 CL         67.1302   94.9132   11.0524 Cl      1  UNL1       -0.0813
     24 C          65.8152   92.6725   11.0526 C.ar    1  UNL1        0.0696
     25 CL         65.9585   92.5883    9.5618 Cl      1  UNL1       -0.0813
     26 C          65.0861   91.5942   11.7980 C.ar    1  UNL1        0.0302
     27 C          64.9429   91.6785   13.2889 C.ar    1  UNL1        0.0894
     28 N          64.2138   90.6002   14.0344 N.am    1  UNL1       -0.2439
     29 C          62.2995   88.5120   11.2572 C.3     1  UNL1        0.0924
     30 N          60.9737   89.1417   11.5666 N.3     1  UNL1       -0.2713
     31 C          60.4706   90.4477   11.0269 C.3     1  UNL1        0.0722
     32 C          59.1042   90.6892   11.5968 C.3     1  UNL1        0.0188
     33 C          58.7629   89.5324   12.4887 C.3     1  UNL1        0.0188
     34 C          59.9183   88.5760   12.4700 C.3     1  UNL1        0.0722
@<TRIPOS>BOND
     1    16    17    2
     2    17    18    1
     3    18    19    1
     4    19    20    1
     5    20    21   ar
     6    21    22   ar
     7    22    23    1
     8    22    24   ar
     9    24    25    1
    10    24    26   ar
    11    26    27   ar
    12    27    28    1
    13    28    15    1
    14    15     1    1
    15     1     2    2
    16     1     3   am
    17     3     4    1
    18     4     5    1
    19     5     6    1
    20     6     7    1
    21     7     9    1
    22     9    10   ar
    23    10    11   ar
    24    11    12   ar
    25    12    13   ar
    26    13    14   ar
    27     7     8    1
    28     8    29    1
    29    29    30    1
    30    30    31    1
    31    31    32    1
    32    32    33    1
    33    33    34    1
    34    28    17   am
    35     8     3    1
    36    34    30    1
    37    27    20   ar
    38    14     9   ar
@<TRIPOS>MOLECULE
*****
 34 38 0 0 0
SMALL
GASTEIGER

@<TRIPOS>ATOM
      1 C          63.9138   88.8716   15.3242 C.2     1  UNL1        0.2463
      2 O          63.7728   90.1901   16.0256 O.2     1  UNL1       -0.2730
      3 N          63.4311   87.6148   15.9855 N.am    1  UNL1       -0.2781
      4 C          62.8073   87.6764   17.3483 C.3     1  UNL1        0.0935
      5 C          62.3246   86.4196   18.0097 C.3     1  UNL1        0.0219
      6 C          62.4656   85.1012   17.3083 C.3     1  UNL1        0.0078
      7 C          63.0893   85.0396   15.9455 C.3     1  UNL1        0.0419
      8 C          63.5721   86.2964   15.2841 C.3     1  UNL1        0.0953
      9 C          63.2303   83.7213   15.2441 C.ar    1  UNL1       -0.0209
     10 C          64.5923   83.1365   15.0130 C.ar    1  UNL1       -0.0042
     11 C          64.7333   81.8182   14.3116 C.ar    1  UNL1       -0.0003
     12 C          63.5124   81.0845   13.8412 C.ar    1  UNL1       -0.0000
     13 C          62.1506   81.6692   14.0723 C.ar    1  UNL1       -0.0003
     14 C          62.0095   82.9876   14.7737 C.ar    1  UNL1       -0.0042
     15 C          64.5376   88.8100   13.9614 C.3     1  UNL1        0.1835
     16 O          66.2714   91.2430   14.2342 O.2     1  UNL1       -0.2705
     17 C          65.2415   91.1742   13.1458 C.2     1  UNL1        0.2744
     18 C          65.0785   92.3219   12.1939 C.3     1  UNL1        0.2900
     19 O          64.0486   92.2531   11.1055 O.3     1  UNL1       -0.4643
     20 C          63.1817   91.0367   10.9691 C.ar    1  UNL1        0.1537
     21 C          62.1518   90.9679    9.8807 C.ar    1  UNL1        0.0504
     22 C          61.2849   89.7515    9.7443 C.ar    1  UNL1        0.0713
     23 CL         60.2550   89.6827    8.6559 Cl      1  UNL1       -0.0813
     24 C          61.4478   88.6037   10.6962 C.ar    1  UNL1        0.0696
     25 CL         60.5809   87.3873   10.5598 Cl      1  UNL1       -0.0813
     26 C          62.4777   88.6725   11.7846 C.ar    1  UNL1        0.0302
     27 C          63.3447   89.8890   11.9210 C.ar    1  UNL1        0.0894
     28 N          64.3746   89.9578   13.0094 N.am    1  UNL1       -0.2439
     29 C          64.1958   86.2348   13.9213 C.3     1  UNL1        0.0924
     30 N          63.5914   85.3660   12.8584 N.3     1  UNL1       -0.2713
     31 C          64.3060   84.3048   12.0753 C.3     1  UNL1        0.0722
     32 C          63.3225   83.6887   11.1249 C.3     1  UNL1        0.0188
     33 C          62.0001   84.3692   11.3206 C.3     1  UNL1        0.0188
     34 C          62.1663   85.4058   12.3920 C.3     1  UNL1        0.0722
@<TRIPOS>BOND
     1    16    17    2
     2    17    18    1
     3    18    19    1
     4    19    20    1
     5    20    21   ar
     6    21    22   ar
     7    22    23    1
     8    22    24   ar
     9    24    25    1
    10    24    26   ar
    11    26    27   ar
    12    27    28    1
    13    28    15    1
    14    15     1    1
    15     1     2    2
    16     1     3   am
    17     3     4    1
    18     4     5    1
    19     5     6    1
    20     6     7    1
    21     7     9    1
    22     9    10   ar
    23    10    11   ar
    24    11    12   ar
    25    12    13   ar
    26    13    14   ar
    27     7     8    1
    28     8    29    1
    29    29    30    1
    30    30    31    1
    31    31    32    1
    32    32    33    1
    33    33    34    1
    34    28    17   am
    35     8     3    1
    36    34    30    1
    37    27    20   ar
    38    14     9   ar
@<TRIPOS>MOLECULE
*****
 34 38 0 0 0
SMALL
GASTEIGER

@<TRIPOS>ATOM
      1 C          62.9500   94.7743   -3.9733 C.2     1  UNL1        0.2463
      2 O          64.3933   94.4585   -4.2331 O.2     1  UNL1       -0.2730
      3 N          61.9403   94.6268   -5.0726 N.am    1  UNL1       -0.2781
      4 C          62.3737   94.1636   -6.4319 C.3     1  UNL1        0.0935
      5 C          61.3638   94.0161   -7.5312 C.3     1  UNL1        0.0219
      6 C          59.9207   94.3319   -7.2713 C.3     1  UNL1        0.0078
      7 C          59.4873   94.7951   -5.9121 C.3     1  UNL1        0.0419
      8 C          60.4970   94.9426   -4.8127 C.3     1  UNL1        0.0953
      9 C          58.0442   95.1109   -5.6522 C.ar    1  UNL1       -0.0209
     10 C          57.5807   96.5374   -5.6299 C.ar    1  UNL1       -0.0042
     11 C          56.1376   96.8532   -5.3699 C.ar    1  UNL1       -0.0003
     12 C          55.1578   95.7425   -5.1323 C.ar    1  UNL1       -0.0000
     13 C          55.6212   94.3161   -5.1546 C.ar    1  UNL1       -0.0003
     14 C          57.0644   94.0002   -5.4145 C.ar    1  UNL1       -0.0042
     15 C          62.5166   95.2376   -2.6140 C.3     1  UNL1        0.1835
     16 O          65.0428   96.8553   -2.6565 O.2     1  UNL1       -0.2705
     17 C          64.7339   95.9776   -1.4799 C.2     1  UNL1        0.2744
     18 C          65.6881   95.9088   -0.3246 C.3     1  UNL1        0.2900
     19 O          65.3792   95.0311    0.8520 O.3     1  UNL1       -0.4643
     20 C          64.1162   94.2223    0.8732 C.ar    1  UNL1        0.1537
     21 C          63.8073   93.3446    2.0498 C.ar    1  UNL1        0.0504
     22 C          62.5443   92.5358    2.0710 C.ar    1  UNL1        0.0713
     23 CL         62.2354   91.6581    3.2476 Cl      1  UNL1       -0.0813
     24 C          61.5900   92.6046    0.9157 C.ar    1  UNL1        0.0696
     25 CL         60.3270   91.7957    0.9369 Cl      1  UNL1       -0.0813
     26 C          61.8989   93.4822   -0.2609 C.ar    1  UNL1        0.0302
     27 C          63.1620   94.2911   -0.2821 C.ar    1  UNL1        0.0894
     28 N          63.4709   95.1688   -1.4587 N.am    1  UNL1       -0.2439
     29 C          60.0637   95.4059   -3.4535 C.3     1  UNL1        0.0924
     30 N          59.0611   94.6081   -2.6736 N.3     1  UNL1       -0.2713
     31 C          59.0711   93.1197   -2.4876 C.3     1  UNL1        0.0722
     32 C          57.8887   92.7503   -1.6418 C.3     1  UNL1        0.0188
     33 C          57.1479   94.0104   -1.3050 C.3     1  UNL1        0.0188
     34 C          57.8725   95.1586   -1.9427 C.3     1  UNL1        0.0722
@<TRIPOS>BOND
     1    16    17    2
     2    17    18    1
     3    18    19    1
     4    19    20    1
     5    20    21   ar
     6    21    22   ar
     7    22    23    1
     8    22    24   ar
     9    24    25    1
    10    24    26   ar
    11    26    27   ar
    12    27    28    1
    13    28    15    1
    14    15     1    1
    15     1     2    2
    16     1     3   am
    17     3     4    1
    18     4     5    1
    19     5     6    1
    20     6     7    1
    21     7     9    1
    22     9    10   ar
    23    10    11   ar
    24    11    12   ar
    25    12    13   ar
    26    13    14   ar
    27     7     8    1
    28     8    29    1
    29    29    30    1
    30    30    31    1
    31    31    32    1
    32    32    33    1
    33    33    34    1
    34    28    17   am
    35     8     3    1
    36    34    30    1
    37    27    20   ar
    38    14     9   ar
@<TRIPOS>MOLECULE
*****
 34 38 0 0 0
SMALL
GASTEIGER

@<TRIPOS>ATOM
      1 C          61.8088   90.2174   11.8432 C.2     1  UNL1        0.2463
      2 O          60.9367   91.4255   11.6696 O.2     1  UNL1       -0.2730
      3 N          61.3643   88.8883   11.3085 N.am    1  UNL1       -0.2781
      4 C          60.0476   88.7673   10.6001 C.3     1  UNL1        0.0935
      5 C          59.6031   87.4382   10.0654 C.3     1  UNL1        0.0219
      6 C          60.4752   86.2302   10.2390 C.3     1  UNL1        0.0078
      7 C          61.7918   86.3512   10.9474 C.3     1  UNL1        0.0419
      8 C          62.2364   87.6803   11.4822 C.3     1  UNL1        0.0953
      9 C          62.6639   85.1432   11.1211 C.ar    1  UNL1       -0.0209
     10 C          63.4797   84.6353    9.9694 C.ar    1  UNL1       -0.0042
     11 C          64.3518   83.4273   10.1430 C.ar    1  UNL1       -0.0003
     12 C          64.4081   82.7272   11.4684 C.ar    1  UNL1       -0.0000
     13 C          63.5924   83.2351   12.6202 C.ar    1  UNL1       -0.0003
     14 C          62.7202   84.4432   12.4465 C.ar    1  UNL1       -0.0042
     15 C          63.1254   90.3384   12.5516 C.3     1  UNL1        0.1835
     16 O          63.2966   91.0431    9.6406 O.2     1  UNL1       -0.2705
     17 C          64.2277   91.6876   10.6242 C.2     1  UNL1        0.2744
     18 C          65.2444   92.6844   10.1524 C.3     1  UNL1        0.2900
     19 O          66.1755   93.3290   11.1361 O.3     1  UNL1       -0.4643
     20 C          66.0899   92.9767   12.5916 C.ar    1  UNL1        0.1537
     21 C          67.0210   93.6212   13.5752 C.ar    1  UNL1        0.0504
     22 C          66.9355   93.2690   15.0307 C.ar    1  UNL1        0.0713
     23 CL         67.8666   93.9135   16.0144 Cl      1  UNL1       -0.0813
     24 C          65.9188   92.2721   15.5026 C.ar    1  UNL1        0.0696
     25 CL         65.8332   91.9198   16.9581 Cl      1  UNL1       -0.0813
     26 C          64.9877   91.6275   14.5190 C.ar    1  UNL1        0.0302
     27 C          65.0733   91.9799   13.0634 C.ar    1  UNL1        0.0894
     28 N          64.1422   91.3353   12.0797 N.am    1  UNL1       -0.2439
     29 C          63.5530   87.8013   12.1906 C.3     1  UNL1        0.0924
     30 N          63.6437   87.5118   13.6595 N.3     1  UNL1       -0.2713
     31 C          63.3432   88.4762   14.7684 C.3     1  UNL1        0.0722
     32 C          63.5646   87.7675   16.0718 C.3     1  UNL1        0.0188
     33 C          64.0019   86.3651   15.7684 C.3     1  UNL1        0.0188
     34 C          64.0508   86.2071   14.2776 C.3     1  UNL1        0.0722
@<TRIPOS>BOND
     1    16    17    2
     2    17    18    1
     3    18    19    1
     4    19    20    1
     5    20    21   ar
     6    21    22   ar
     7    22    23    1
     8    22    24   ar
     9    24    25    1
    10    24    26   ar
    11    26    27   ar
    12    27    28    1
    13    28    15    1
    14    15     1    1
    15     1     2    2
    16     1     3   am
    17     3     4    1
    18     4     5    1
    19     5     6    1
    20     6     7    1
    21     7     9    1
    22     9    10   ar
    23    10    11   ar
    24    11    12   ar
    25    12    13   ar
    26    13    14   ar
    27     7     8    1
    28     8    29    1
    29    29    30    1
    30    30    31    1
    31    31    32    1
    32    32    33    1
    33    33    34    1
    34    28    17   am
    35     8     3    1
    36    34    30    1
    37    27    20   ar
    38    14     9   ar
@<TRIPOS>MOLECULE
*****
 34 38 0 0 0
SMALL
GASTEIGER

@<TRIPOS>ATOM
      1 C          63.9042   88.6004   15.3242 C.2     1  UNL1        0.2463
      2 O          63.8239   89.8319   16.1769 O.2     1  UNL1       -0.2730
      3 N          63.4301   87.2831   15.8627 N.am    1  UNL1       -0.2781
      4 C          62.8757   87.1973   17.2538 C.3     1  UNL1        0.0935
      5 C          62.4015   85.8799   17.7923 C.3     1  UNL1        0.0219
      6 C          62.4819   84.6485   16.9396 C.3     1  UNL1        0.0078
      7 C          63.0363   84.7343   15.5484 C.3     1  UNL1        0.0419
      8 C          63.5104   86.0516   15.0100 C.3     1  UNL1        0.0953
      9 C          63.1166   83.5029   14.6958 C.ar    1  UNL1       -0.0209
     10 C          64.2686   83.3172   13.7531 C.ar    1  UNL1       -0.0042
     11 C          64.3489   82.0858   12.9004 C.ar    1  UNL1       -0.0003
     12 C          63.2773   81.0400   12.9903 C.ar    1  UNL1       -0.0000
     13 C          62.1254   81.2257   13.9329 C.ar    1  UNL1       -0.0003
     14 C          62.0450   82.4572   14.7857 C.ar    1  UNL1       -0.0042
     15 C          64.4587   88.6862   13.9331 C.3     1  UNL1        0.1835
     16 O          62.6732   89.1256   11.5626 O.2     1  UNL1       -0.2705
     17 C          63.5852   90.2218   12.0281 C.2     1  UNL1        0.2744
     18 C          63.6045   91.5377   11.3083 C.3     1  UNL1        0.2900
     19 O          64.5165   92.6339   11.7738 O.3     1  UNL1       -0.4643
     20 C          65.4092   92.4142   12.9590 C.ar    1  UNL1        0.1537
     21 C          66.3211   93.5104   13.4245 C.ar    1  UNL1        0.0504
     22 C          67.2138   93.2907   14.6097 C.ar    1  UNL1        0.0713
     23 CL         68.1258   94.3869   15.0752 Cl      1  UNL1       -0.0813
     24 C          67.1946   91.9748   15.3296 C.ar    1  UNL1        0.0696
     25 CL         68.0873   91.7551   16.5148 Cl      1  UNL1       -0.0813
     26 C          66.2826   90.8786   14.8641 C.ar    1  UNL1        0.0302
     27 C          65.3899   91.0983   13.6788 C.ar    1  UNL1        0.0894
     28 N          64.4779   90.0021   13.2133 N.am    1  UNL1       -0.2439
     29 C          64.0648   86.1374   13.6189 C.3     1  UNL1        0.0924
     30 N          63.1535   85.9839   12.4375 N.3     1  UNL1       -0.2713
     31 C          63.5370   85.4413   11.0927 C.3     1  UNL1        0.0722
     32 C          62.3191   85.4680   10.2175 C.3     1  UNL1        0.0188
     33 C          61.1828   86.0272   11.0214 C.3     1  UNL1        0.0188
     34 C          61.6985   86.3460   12.3934 C.3     1  UNL1        0.0722
@<TRIPOS>BOND
     1    16    17    2
     2    17    18    1
     3    18    19    1
     4    19    20    1
     5    20    21   ar
     6    21    22   ar
     7    22    23    1
     8    22    24   ar
     9    24    25    1
    10    24    26   ar
    11    26    27   ar
    12    27    28    1
    13    28    15    1
    14    15     1    1
    15     1     2    2
    16     1     3   am
    17     3     4    1
    18     4     5    1
    19     5     6    1
    20     6     7    1
    21     7     9    1
    22     9    10   ar
    23    10    11   ar
    24    11    12   ar
    25    12    13   ar
    26    13    14   ar
    27     7     8    1
    28     8    29    1
    29    29    30    1
    30    30    31    1
    31    31    32    1
    32    32    33    1
    33    33    34    1
    34    28    17   am
    35     8     3    1
    36    34    30    1
    37    27    20   ar
    38    14     9   ar
