@<TRIPOS>MOLECULE
*****
 39 42 0 0 0
SMALL
GASTEIGER

@<TRIPOS>ATOM
      1 C          62.3159   84.8485   11.1005 C.ar    1  UNL1        0.0068
      2 C          61.2558   85.8902   11.3033 C.ar    1  UNL1       -0.0020
      3 C          60.8443   86.7733   10.1628 C.ar    1  UNL1       -0.0002
      4 C          61.4928   86.6148    8.8195 C.ar    1  UNL1        0.0024
      5 C          62.5529   85.5731    8.6168 C.ar    1  UNL1        0.0293
      6 C          62.9645   84.6900    9.7573 C.ar    1  UNL1        0.1362
      7 F          64.0246   83.6484    9.5545 F       1  UNL1       -0.2045
      8 C          63.0170   80.6097   14.1701 C.3     1  UNL1        0.0897
      9 N          63.0497   82.0170   13.6519 N.3     1  UNL1       -0.2708
     10 C          63.6721   83.1957   14.3401 C.3     1  UNL1        0.0816
     11 C          63.4728   84.3998   13.4680 C.3     1  UNL1        0.0981
     12 C          62.7275   83.9653   12.2409 C.3     1  UNL1        0.0505
     13 C          62.4660   82.4927   12.3546 C.3     1  UNL1        0.0771
     14 C          63.9375   85.7937   13.7700 C.2     1  UNL1        0.2274
     15 O          65.0038   86.0222   14.8000 O.2     1  UNL1       -0.2747
     16 N          63.3359   86.9591   13.0421 N.am    1  UNL1       -0.2839
     17 H          62.6361   86.8092   12.3661 H       1  UNL1        0.1549
     18 C          63.8006   88.3530   13.3442 C.ar    1  UNL1        0.0504
     19 C          63.5401   89.4591   12.3650 C.ar    1  UNL1        0.0155
     20 C          64.0048   90.8529   12.6671 C.ar    1  UNL1        0.0127
     21 C          64.7299   91.1407   13.9483 C.ar    1  UNL1        0.0578
     22 CL         65.1945   92.5346   14.2504 Cl      1  UNL1       -0.0822
     23 C          64.9903   90.0346   14.9274 C.ar    1  UNL1        0.0127
     24 C          64.5257   88.6408   14.6253 C.ar    1  UNL1        0.0155
     25 C          61.0813   87.4979    7.6791 C.2     1  UNL1        0.0047
     26 C          60.1020   88.6109    7.9080 C.2     1  UNL1        0.0580
     27 C          59.6904   89.4941    6.7676 C.2     1  UNL1        0.2497
     28 O          58.2431   89.6053    6.3897 O.2     1  UNL1       -0.2698
     29 N          60.7260   90.2663    6.0052 N.am    1  UNL1       -0.2794
     30 H          61.6760   90.1934    6.2532 H       1  UNL1        0.1552
     31 C          60.3143   91.1494    4.8648 C.ar    1  UNL1        0.0636
     32 C          58.8988   91.6358    4.7660 C.ar    1  UNL1        0.0159
     33 C          58.4872   92.5190    3.6256 C.ar    1  UNL1        0.0014
     34 C          59.4910   92.9158    2.5840 C.ar    1  UNL1        0.0013
     35 C          60.9066   92.4295    2.6829 C.ar    1  UNL1        0.0153
     36 C          61.3182   91.5463    3.8233 C.ar    1  UNL1        0.0552
     37 N          62.7337   91.0600    3.9222 N.pl3   1  UNL1       -0.3560
     38 H          63.3926   91.3205    3.2386 H       1  UNL1        0.1424
     39 H          63.0039   90.4803    4.6707 H       1  UNL1        0.1424
@<TRIPOS>BOND
     1     8     9    1
     2     9    10    1
     3    10    11    1
     4    11    14    1
     5    14    15    2
     6    14    16   am
     7    16    18    1
     8    18    19   ar
     9    19    20   ar
    10    20    21   ar
    11    21    22    1
    12    21    23   ar
    13    23    24   ar
    14    11    12    1
    15    12     1    1
    16     1     2   ar
    17     2     3   ar
    18     3     4   ar
    19     4    25    1
    20    25    26    2
    21    26    27    1
    22    27    28    2
    23    27    29   am
    24    29    31    1
    25    31    32   ar
    26    32    33   ar
    27    33    34   ar
    28    34    35   ar
    29    35    36   ar
    30    36    37    1
    31     4     5   ar
    32     5     6   ar
    33     6     7    1
    34    12    13    1
    35    13     9    1
    36    24    18   ar
    37     6     1   ar
    38    36    31   ar
    39    16    17    1
    40    29    30    1
    41    37    38    1
    42    37    39    1
@<TRIPOS>MOLECULE
*****
 39 42 0 0 0
SMALL
GASTEIGER

@<TRIPOS>ATOM
      1 C          62.4588   84.7476   11.5193 C.ar    1  UNL1        0.0068
      2 C          61.4692   85.8197   11.8675 C.ar    1  UNL1       -0.0020
      3 C          61.0561   86.8238   10.8326 C.ar    1  UNL1       -0.0002
      4 C          61.6326   86.7559    9.4494 C.ar    1  UNL1        0.0024
      5 C          62.6222   85.6838    9.1012 C.ar    1  UNL1        0.0293
      6 C          63.0353   84.6796   10.1361 C.ar    1  UNL1        0.1362
      7 F          64.0248   83.6075    9.7880 F       1  UNL1       -0.2045
      8 C          63.7161   80.1935   13.8773 C.3     1  UNL1        0.0897
      9 N          63.4499   81.6501   13.6381 N.3     1  UNL1       -0.2708
     10 C          63.5654   82.7464   14.6555 C.3     1  UNL1        0.0816
     11 C          63.2082   84.0400   13.9856 C.3     1  UNL1        0.0981
     12 C          62.8719   83.7434   12.5542 C.3     1  UNL1        0.0505
     13 C          63.0212   82.2664   12.3394 C.3     1  UNL1        0.0771
     14 C          63.1905   85.3929   14.6334 C.2     1  UNL1        0.2274
     15 O          62.4213   85.6062   15.9034 O.2     1  UNL1       -0.2747
     16 N          63.9419   86.5323   14.0112 N.am    1  UNL1       -0.2839
     17 H          64.4467   86.3922   13.1777 H       1  UNL1        0.1549
     18 C          63.9242   87.8851   14.6591 C.ar    1  UNL1        0.0504
     19 C          63.4455   88.0334   16.0729 C.ar    1  UNL1        0.0155
     20 C          63.4278   89.3862   16.7206 C.ar    1  UNL1        0.0127
     21 C          63.8888   90.5906   15.9546 C.ar    1  UNL1        0.0578
     22 CL         63.8710   91.9435   16.6024 Cl      1  UNL1       -0.0822
     23 C          64.3674   90.4423   14.5408 C.ar    1  UNL1        0.0127
     24 C          64.3851   89.0896   13.8931 C.ar    1  UNL1        0.0155
     25 C          61.2195   87.7600    8.4145 C.2     1  UNL1        0.0047
     26 C          59.7659   87.9625    8.1043 C.2     1  UNL1        0.0580
     27 C          59.3527   88.9666    7.0694 C.2     1  UNL1        0.2497
     28 O          57.9017   89.1423    6.7322 O.2     1  UNL1       -0.2698
     29 N          60.3905   89.7951    6.3717 N.am    1  UNL1       -0.2794
     30 H          61.3428   89.6799    6.5930 H       1  UNL1        0.1552
     31 C          59.9771   90.7992    5.3369 C.ar    1  UNL1        0.0636
     32 C          58.5604   91.2898    5.2915 C.ar    1  UNL1        0.0159
     33 C          58.1472   92.2939    4.2566 C.ar    1  UNL1        0.0014
     34 C          59.1507   92.8074    3.2671 C.ar    1  UNL1        0.0013
     35 C          60.5675   92.3169    3.3125 C.ar    1  UNL1        0.0153
     36 C          60.9807   91.3128    4.3474 C.ar    1  UNL1        0.0552
     37 N          62.3975   90.8222    4.3927 N.pl3   1  UNL1       -0.3560
     38 H          63.0561   91.1593    3.7432 H       1  UNL1        0.1424
     39 H          62.6687   90.1632    5.0719 H       1  UNL1        0.1424
@<TRIPOS>BOND
     1     8     9    1
     2     9    10    1
     3    10    11    1
     4    11    14    1
     5    14    15    2
     6    14    16   am
     7    16    18    1
     8    18    19   ar
     9    19    20   ar
    10    20    21   ar
    11    21    22    1
    12    21    23   ar
    13    23    24   ar
    14    11    12    1
    15    12     1    1
    16     1     2   ar
    17     2     3   ar
    18     3     4   ar
    19     4    25    1
    20    25    26    2
    21    26    27    1
    22    27    28    2
    23    27    29   am
    24    29    31    1
    25    31    32   ar
    26    32    33   ar
    27    33    34   ar
    28    34    35   ar
    29    35    36   ar
    30    36    37    1
    31     4     5   ar
    32     5     6   ar
    33     6     7    1
    34    12    13    1
    35    13     9    1
    36    24    18   ar
    37     6     1   ar
    38    36    31   ar
    39    16    17    1
    40    29    30    1
    41    37    38    1
    42    37    39    1
@<TRIPOS>MOLECULE
*****
 39 42 0 0 0
SMALL
GASTEIGER

@<TRIPOS>ATOM
      1 C          60.9880   88.0081    9.4741 C.ar    1  UNL1        0.0068
      2 C          60.6076   89.4559    9.5693 C.ar    1  UNL1       -0.0020
      3 C          59.9954   90.1497    8.3886 C.ar    1  UNL1       -0.0002
      4 C          59.7637   89.3957    7.1128 C.ar    1  UNL1        0.0024
      5 C          60.1442   87.9478    7.0176 C.ar    1  UNL1        0.0293
      6 C          60.7563   87.2541    8.1982 C.ar    1  UNL1        0.1362
      7 F          61.1368   85.8063    8.1031 F       1  UNL1       -0.2045
      8 C          62.0978   84.3810   13.1475 C.3     1  UNL1        0.0897
      9 N          62.1103   85.6471   12.3432 N.3     1  UNL1       -0.2708
     10 C          62.9743   86.8462   12.5999 C.3     1  UNL1        0.0816
     11 C          62.6589   87.8765   11.5563 C.3     1  UNL1        0.0981
     12 C          61.6002   87.3143   10.6547 C.3     1  UNL1        0.0505
     13 C          61.2611   85.9364   11.1410 C.3     1  UNL1        0.0771
     14 C          63.2914   89.2314   11.4356 C.2     1  UNL1        0.2274
     15 O          63.1980   89.9904   10.1452 O.2     1  UNL1       -0.2747
     16 N          64.0173   89.8271   12.6053 N.am    1  UNL1       -0.2839
     17 H          64.0786   89.3289   13.4522 H       1  UNL1        0.1549
     18 C          64.6497   91.1819   12.4846 C.ar    1  UNL1        0.0504
     19 C          64.5498   91.9442   11.1966 C.ar    1  UNL1        0.0155
     20 C          65.1822   93.2990   11.0760 C.ar    1  UNL1        0.0127
     21 C          65.9147   93.8914   12.2433 C.ar    1  UNL1        0.0578
     22 CL         66.5472   95.2462   12.1226 Cl      1  UNL1       -0.0822
     23 C          66.0147   93.1291   13.5312 C.ar    1  UNL1        0.0127
     24 C          65.3822   91.7744   13.6518 C.ar    1  UNL1        0.0155
     25 C          59.1516   90.0895    5.9322 C.2     1  UNL1        0.0047
     26 C          59.9167   91.1598    5.2117 C.2     1  UNL1        0.0580
     27 C          59.3046   91.8536    4.0310 C.2     1  UNL1        0.2497
     28 O          57.8152   92.0063    3.9401 O.2     1  UNL1       -0.2698
     29 N          60.1819   92.3950    2.9413 N.am    1  UNL1       -0.2794
     30 H          61.1595   92.2948    3.0010 H       1  UNL1        0.1552
     31 C          59.5697   93.0888    1.7608 C.ar    1  UNL1        0.0636
     32 C          58.8180   92.2970    0.7322 C.ar    1  UNL1        0.0159
     33 C          58.2059   92.9910   -0.4483 C.ar    1  UNL1        0.0014
     34 C          58.3455   94.4767   -0.6003 C.ar    1  UNL1        0.0013
     35 C          59.0972   95.2685    0.4283 C.ar    1  UNL1        0.0153
     36 C          59.7093   94.5746    1.6088 C.ar    1  UNL1        0.0552
     37 N          60.4610   95.3664    2.6374 N.pl3   1  UNL1       -0.3560
     38 H          60.5526   96.3415    2.5377 H       1  UNL1        0.1424
     39 H          60.8628   94.9109    3.4123 H       1  UNL1        0.1424
@<TRIPOS>BOND
     1     8     9    1
     2     9    10    1
     3    10    11    1
     4    11    14    1
     5    14    15    2
     6    14    16   am
     7    16    18    1
     8    18    19   ar
     9    19    20   ar
    10    20    21   ar
    11    21    22    1
    12    21    23   ar
    13    23    24   ar
    14    11    12    1
    15    12     1    1
    16     1     2   ar
    17     2     3   ar
    18     3     4   ar
    19     4    25    1
    20    25    26    2
    21    26    27    1
    22    27    28    2
    23    27    29   am
    24    29    31    1
    25    31    32   ar
    26    32    33   ar
    27    33    34   ar
    28    34    35   ar
    29    35    36   ar
    30    36    37    1
    31     4     5   ar
    32     5     6   ar
    33     6     7    1
    34    12    13    1
    35    13     9    1
    36    24    18   ar
    37     6     1   ar
    38    36    31   ar
    39    16    17    1
    40    29    30    1
    41    37    38    1
    42    37    39    1
@<TRIPOS>MOLECULE
*****
 39 42 0 0 0
SMALL
GASTEIGER

@<TRIPOS>ATOM
      1 C          60.9745   88.0392    9.5002 C.ar    1  UNL1        0.0068
      2 C          60.9339   87.3479    8.1696 C.ar    1  UNL1       -0.0020
      3 C          60.3202   88.0350    6.9859 C.ar    1  UNL1       -0.0002
      4 C          59.7470   89.4134    7.1326 C.ar    1  UNL1        0.0024
      5 C          59.7876   90.1047    8.4632 C.ar    1  UNL1        0.0293
      6 C          60.4013   89.4176    9.6469 C.ar    1  UNL1        0.1362
      7 F          60.4419   90.1089   10.9775 F       1  UNL1       -0.2045
      8 C          62.0659   84.4464   13.2125 C.3     1  UNL1        0.0897
      9 N          62.0899   85.7007   12.3904 N.3     1  UNL1       -0.2708
     10 C          62.9754   86.8894   12.6210 C.3     1  UNL1        0.0816
     11 C          62.6653   87.9099   11.5663 C.3     1  UNL1        0.0981
     12 C          61.5882   87.3522   10.6839 C.3     1  UNL1        0.0505
     13 C          61.2325   85.9868   11.1932 C.3     1  UNL1        0.0771
     14 C          63.3179   89.2526   11.4199 C.2     1  UNL1        0.2274
     15 O          63.3101   89.9494   10.0915 O.2     1  UNL1       -0.2747
     16 N          63.9782   89.8985   12.6017 N.am    1  UNL1       -0.2839
     17 H          63.9833   89.4412   13.4735 H       1  UNL1        0.1549
     18 C          64.6308   91.2412   12.4552 C.ar    1  UNL1        0.0504
     19 C          65.3864   91.8373   13.6057 C.ar    1  UNL1        0.0155
     20 C          66.0389   93.1800   13.4592 C.ar    1  UNL1        0.0127
     21 C          65.9359   93.9265   12.1622 C.ar    1  UNL1        0.0578
     22 CL         66.5884   95.2692   12.0158 Cl      1  UNL1       -0.0822
     23 C          65.1802   93.3303   11.0118 C.ar    1  UNL1        0.0127
     24 C          64.5277   91.9877   11.1583 C.ar    1  UNL1        0.0155
     25 C          59.1333   90.1004    5.9489 C.2     1  UNL1        0.0047
     26 C          59.9005   91.1611    5.2165 C.2     1  UNL1        0.0580
     27 C          59.2869   91.8482    4.0327 C.2     1  UNL1        0.2497
     28 O          57.7962   91.9807    3.9321 O.2     1  UNL1       -0.2698
     29 N          60.1639   92.4028    2.9495 N.am    1  UNL1       -0.2794
     30 H          61.1424   92.3158    3.0155 H       1  UNL1        0.1552
     31 C          59.5502   93.0898    1.7658 C.ar    1  UNL1        0.0636
     32 C          58.7826   92.2945    0.7517 C.ar    1  UNL1        0.0159
     33 C          58.1689   92.9817   -0.4320 C.ar    1  UNL1        0.0014
     34 C          58.3229   94.4641   -0.6017 C.ar    1  UNL1        0.0013
     35 C          59.0905   95.2593    0.4123 C.ar    1  UNL1        0.0153
     36 C          59.7042   94.5722    1.5961 C.ar    1  UNL1        0.0552
     37 N          60.4719   95.3675    2.6101 N.pl3   1  UNL1       -0.3560
     38 H          60.5729   96.3404    2.4987 H       1  UNL1        0.1424
     39 H          60.8746   94.9165    3.3870 H       1  UNL1        0.1424
@<TRIPOS>BOND
     1     8     9    1
     2     9    10    1
     3    10    11    1
     4    11    14    1
     5    14    15    2
     6    14    16   am
     7    16    18    1
     8    18    19   ar
     9    19    20   ar
    10    20    21   ar
    11    21    22    1
    12    21    23   ar
    13    23    24   ar
    14    11    12    1
    15    12     1    1
    16     1     2   ar
    17     2     3   ar
    18     3     4   ar
    19     4    25    1
    20    25    26    2
    21    26    27    1
    22    27    28    2
    23    27    29   am
    24    29    31    1
    25    31    32   ar
    26    32    33   ar
    27    33    34   ar
    28    34    35   ar
    29    35    36   ar
    30    36    37    1
    31     4     5   ar
    32     5     6   ar
    33     6     7    1
    34    12    13    1
    35    13     9    1
    36    24    18   ar
    37     6     1   ar
    38    36    31   ar
    39    16    17    1
    40    29    30    1
    41    37    38    1
    42    37    39    1
