@<TRIPOS>MOLECULE
*****
 33 37 0 0 0
SMALL
GASTEIGER

@<TRIPOS>ATOM
      1 C          63.0863   89.1187   12.6259 C.ar    1  UNL1        0.3283
      2 N          63.5151   87.7991   13.1957 N.ar    1  UNL1       -0.1750
      3 C          63.0491   86.5216   12.5624 C.ar    1  UNL1        0.1665
      4 N          62.1542   86.5638   11.3593 N.ar    1  UNL1       -0.1946
      5 C          61.7254   87.8835   10.7896 C.ar    1  UNL1        0.2255
      6 N          62.1914   89.1609   11.4228 N.ar    1  UNL1       -0.1607
      7 C          63.4779   85.2020   13.1322 C.2     1  UNL1        0.0249
      8 C          63.5085   85.0011   14.6184 C.2     1  UNL1       -0.0005
      9 C          63.9374   83.6816   15.1882 C.2     1  UNL1        0.0011
     10 C          64.3357   82.5628   14.2718 C.2     1  UNL1        0.0172
     11 C          64.3051   82.7636   12.7857 C.2     1  UNL1        0.0900
     12 N          64.6396   81.8518   11.6426 N.2     1  UNL1       -0.1519
     13 N          64.4174   82.6079   10.3663 N.2     1  UNL1       -0.1507
     14 C          63.9456   83.9870   10.7206 C.2     1  UNL1        0.1058
     15 C          63.8762   84.0832   12.2159 C.3     1  UNL1        0.1103
     16 N          60.8305   87.9257    9.5865 N.pl3   1  UNL1       -0.2729
     17 C          60.2598   86.6544    9.0312 C.3     1  UNL1        0.1257
     18 C          59.3649   86.6967    7.8281 C.3     1  UNL1        0.1637
     19 O          59.0407   88.0102    7.1803 O.3     1  UNL1       -0.3501
     20 C          59.6114   89.2814    7.7355 C.3     1  UNL1        0.1637
     21 C          60.5063   89.2392    8.9386 C.3     1  UNL1        0.1257
     22 O          63.5523   90.3961   13.2592 O.3     1  UNL1       -0.4222
     23 C          66.1631   93.2351   10.9410 C.ar    1  UNL1        0.0538
     24 C          65.0100   92.5545   10.2648 C.ar    1  UNL1        0.0076
     25 C          64.1397   91.6082   11.0375 C.ar    1  UNL1        0.0378
     26 C          64.4225   91.3424   12.4864 C.ar    1  UNL1        0.1487
     27 C          65.5756   92.0229   13.1626 C.ar    1  UNL1        0.0378
     28 C          66.4459   92.9692   12.3899 C.ar    1  UNL1        0.0076
     29 C          67.4461   96.5344    9.1473 C.3     1  UNL1        0.1152
     30 N          66.5759   95.5882    9.9200 N.am    1  UNL1       -0.2726
     31 C          65.2481   96.0486   10.4444 C.3     1  UNL1        0.1152
     32 C          67.0333   94.1813   10.1683 C.2     1  UNL1        0.2491
     33 O          68.3610   93.7209    9.6438 O.2     1  UNL1       -0.2699
@<TRIPOS>BOND
     1    29    30    1
     2    30    31    1
     3    30    32   am
     4    32    33    2
     5    32    23    1
     6    23    24   ar
     7    24    25   ar
     8    25    26   ar
     9    26    22    1
    10    22     1    1
    11     1     2   ar
    12     2     3   ar
    13     3     7    1
    14     7     8    2
    15     8     9    1
    16     9    10    2
    17    10    11    1
    18    11    12    2
    19    12    13    1
    20    13    14    2
    21    14    15    1
    22     3     4   ar
    23     4     5   ar
    24     5    16    1
    25    16    17    1
    26    17    18    1
    27    18    19    1
    28    19    20    1
    29    20    21    1
    30     5     6   ar
    31    26    27   ar
    32    27    28   ar
    33    28    23   ar
    34     6     1   ar
    35    15     7    1
    36    21    16    1
    37    15    11    1
@<TRIPOS>MOLECULE
*****
 33 37 0 0 0
SMALL
GASTEIGER

@<TRIPOS>ATOM
      1 C          62.8381   88.3437   12.3536 C.ar    1  UNL1        0.3283
      2 N          63.2689   86.9346   12.6339 N.ar    1  UNL1       -0.1750
      3 C          62.7756   85.8132   11.7682 C.ar    1  UNL1        0.1665
      4 N          61.8515   86.1010   10.6223 N.ar    1  UNL1       -0.1946
      5 C          61.4207   87.5103   10.3421 C.ar    1  UNL1        0.2255
      6 N          61.9139   88.6316   11.2077 N.ar    1  UNL1       -0.1607
      7 C          63.2065   84.4040   12.0485 C.2     1  UNL1        0.0249
      8 C          63.7431   83.5490   10.9390 C.2     1  UNL1       -0.0005
      9 C          64.1739   82.1399   11.2192 C.2     1  UNL1        0.0011
     10 C          64.0683   81.5856   12.6091 C.2     1  UNL1        0.0172
     11 C          63.5317   82.4406   13.7187 C.2     1  UNL1        0.0900
     12 N          63.3123   82.1703   15.1777 N.2     1  UNL1       -0.1519
     13 N          62.7458   83.4124   15.7991 N.2     1  UNL1       -0.1507
     14 C          62.6151   84.4504   14.7242 C.2     1  UNL1        0.1058
     15 C          63.1009   83.8498   13.4384 C.3     1  UNL1        0.1103
     16 N          60.4965   87.7981    9.1962 N.pl3   1  UNL1       -0.2729
     17 C          60.3469   89.2014    8.6875 C.3     1  UNL1        0.1257
     18 C          59.4227   89.4892    7.5416 C.3     1  UNL1        0.1637
     19 O          58.6483   88.3738    6.9044 O.3     1  UNL1       -0.3501
     20 C          58.7979   86.9706    7.4129 C.3     1  UNL1        0.1637
     21 C          59.7220   86.6828    8.5588 C.3     1  UNL1        0.1257
     22 O          63.3314   89.4650   13.2192 O.3     1  UNL1       -0.4222
     23 C          65.3565   93.0243   11.3535 C.ar    1  UNL1        0.0538
     24 C          64.3412   92.2442   10.5722 C.ar    1  UNL1        0.0076
     25 C          63.6661   91.0577   11.1940 C.ar    1  UNL1        0.0378
     26 C          64.0064   90.6514   12.5973 C.ar    1  UNL1        0.1487
     27 C          65.0217   91.4316   13.3786 C.ar    1  UNL1        0.0378
     28 C          65.6967   92.6180   12.7568 C.ar    1  UNL1        0.0076
     29 C          67.9075   95.2021    9.2325 C.3     1  UNL1        0.1152
     30 N          67.2325   94.0158    9.8544 N.am    1  UNL1       -0.2726
     31 C          67.7585   92.6344    9.5990 C.3     1  UNL1        0.1152
     32 C          66.0315   94.2107   10.7317 C.2     1  UNL1        0.2491
     33 O          65.5055   95.5920   10.9870 O.2     1  UNL1       -0.2699
@<TRIPOS>BOND
     1    29    30    1
     2    30    31    1
     3    30    32   am
     4    32    33    2
     5    32    23    1
     6    23    24   ar
     7    24    25   ar
     8    25    26   ar
     9    26    22    1
    10    22     1    1
    11     1     2   ar
    12     2     3   ar
    13     3     7    1
    14     7     8    2
    15     8     9    1
    16     9    10    2
    17    10    11    1
    18    11    12    2
    19    12    13    1
    20    13    14    2
    21    14    15    1
    22     3     4   ar
    23     4     5   ar
    24     5    16    1
    25    16    17    1
    26    17    18    1
    27    18    19    1
    28    19    20    1
    29    20    21    1
    30     5     6   ar
    31    26    27   ar
    32    27    28   ar
    33    28    23   ar
    34     6     1   ar
    35    15     7    1
    36    21    16    1
    37    15    11    1
@<TRIPOS>MOLECULE
*****
 33 37 0 0 0
SMALL
GASTEIGER

@<TRIPOS>ATOM
      1 C          63.2914   90.5152   12.8034 C.ar    1  UNL1        0.3283
      2 N          62.9600   89.3675   13.7104 N.ar    1  UNL1       -0.1750
      3 C          63.8634   89.0357   14.8611 C.ar    1  UNL1        0.1665
      4 N          65.0982   89.8518   15.1047 N.ar    1  UNL1       -0.1946
      5 C          65.4296   90.9996   14.1976 C.ar    1  UNL1        0.2255
      6 N          64.5262   91.3313   13.0469 N.ar    1  UNL1       -0.1607
      7 C          63.5320   87.8879   15.7681 C.2     1  UNL1        0.0249
      8 C          62.9950   88.1501   17.1440 C.2     1  UNL1       -0.0005
      9 C          62.6636   87.0024   18.0510 C.2     1  UNL1        0.0011
     10 C          62.8691   85.5924   17.5822 C.2     1  UNL1        0.0172
     11 C          63.4060   85.3302   16.2064 C.2     1  UNL1        0.0900
     12 N          63.7112   84.0573   15.4739 N.2     1  UNL1       -0.1519
     13 N          64.2313   84.4185   14.1140 N.2     1  UNL1       -0.1507
     14 C          64.2475   85.9145   14.0062 C.2     1  UNL1        0.1058
     15 C          63.7374   86.4780   15.2993 C.3     1  UNL1        0.1103
     16 N          66.6643   91.8157   14.4411 N.pl3   1  UNL1       -0.2729
     17 C          66.6875   92.8293   15.5468 C.3     1  UNL1        0.1257
     18 C          67.9223   93.6454   15.7903 C.3     1  UNL1        0.1637
     19 O          69.1338   93.4479   14.9283 O.3     1  UNL1       -0.3501
     20 C          69.1107   92.4344   13.8228 C.3     1  UNL1        0.1637
     21 C          67.8759   91.6183   13.5792 C.3     1  UNL1        0.1257
     22 O          62.3881   90.8469   11.6528 O.3     1  UNL1       -0.4222
     23 C          61.0022   87.5935    8.8698 C.ar    1  UNL1        0.0538
     24 C          60.3928   88.9615    8.7867 C.ar    1  UNL1        0.0076
     25 C          60.8547   90.0460    9.7144 C.ar    1  UNL1        0.0378
     26 C          61.9261   89.7624   10.7251 C.ar    1  UNL1        0.1487
     27 C          62.5356   88.3944   10.8081 C.ar    1  UNL1        0.0378
     28 C          62.0737   87.3099    9.8805 C.ar    1  UNL1        0.0076
     29 C          61.0373   84.3615    6.5671 C.3     1  UNL1        0.1152
     30 N          61.4993   85.4459    7.4947 N.am    1  UNL1       -0.2726
     31 C          62.9201   85.4672    7.9749 C.3     1  UNL1        0.1152
     32 C          60.5403   86.5091    7.9421 C.2     1  UNL1        0.2491
     33 O          59.1194   86.4877    7.4619 O.2     1  UNL1       -0.2699
@<TRIPOS>BOND
     1    29    30    1
     2    30    31    1
     3    30    32   am
     4    32    33    2
     5    32    23    1
     6    23    24   ar
     7    24    25   ar
     8    25    26   ar
     9    26    22    1
    10    22     1    1
    11     1     2   ar
    12     2     3   ar
    13     3     7    1
    14     7     8    2
    15     8     9    1
    16     9    10    2
    17    10    11    1
    18    11    12    2
    19    12    13    1
    20    13    14    2
    21    14    15    1
    22     3     4   ar
    23     4     5   ar
    24     5    16    1
    25    16    17    1
    26    17    18    1
    27    18    19    1
    28    19    20    1
    29    20    21    1
    30     5     6   ar
    31    26    27   ar
    32    27    28   ar
    33    28    23   ar
    34     6     1   ar
    35    15     7    1
    36    21    16    1
    37    15    11    1
@<TRIPOS>MOLECULE
*****
 33 37 0 0 0
SMALL
GASTEIGER

@<TRIPOS>ATOM
      1 C          62.5571   88.3423   11.2689 C.ar    1  UNL1        0.3283
      2 N          62.9609   87.4280   12.3872 N.ar    1  UNL1       -0.1750
      3 C          62.9609   85.9424   12.1786 C.ar    1  UNL1        0.1665
      4 N          62.5569   85.3714   10.8517 N.ar    1  UNL1       -0.1946
      5 C          62.1531   86.2859    9.7334 C.ar    1  UNL1        0.2255
      6 N          62.1531   87.7713    9.9419 N.ar    1  UNL1       -0.1607
      7 C          63.3648   85.0280   13.2970 C.2     1  UNL1        0.0249
      8 C          63.9625   85.5949   14.5505 C.2     1  UNL1       -0.0005
      9 C          64.3664   84.6806   15.6689 C.2     1  UNL1        0.0011
     10 C          64.1725   83.1992   15.5338 C.2     1  UNL1        0.0172
     11 C          63.5748   82.6324   14.2802 C.2     1  UNL1        0.0900
     12 N          63.2650   81.2252   13.8634 N.2     1  UNL1       -0.1519
     13 N          62.6696   81.2699   12.4873 N.2     1  UNL1       -0.1507
     14 C          62.6114   82.7047   12.0537 C.2     1  UNL1        0.1058
     15 C          63.1709   83.5468   13.1619 C.3     1  UNL1        0.1103
     16 N          61.7491   85.7149    8.4064 N.pl3   1  UNL1       -0.2729
     17 C          60.3397   85.8754    7.9185 C.3     1  UNL1        0.1257
     18 C          59.9358   85.3044    6.5915 C.3     1  UNL1        0.1637
     19 O          60.9413   84.5729    5.7526 O.3     1  UNL1       -0.3501
     20 C          62.3506   84.4123    6.2404 C.3     1  UNL1        0.1637
     21 C          62.7545   84.9833    7.5673 C.3     1  UNL1        0.1257
     22 O          62.5571   89.8277   11.4775 O.3     1  UNL1       -0.4222
     23 C          65.5338   91.7062   14.2812 C.ar    1  UNL1        0.0538
     24 C          64.7563   90.4981   14.7124 C.ar    1  UNL1        0.0076
     25 C          63.7640   89.8719   13.7778 C.ar    1  UNL1        0.0378
     26 C          63.5493   90.4539   12.4121 C.ar    1  UNL1        0.1487
     27 C          64.3269   91.6619   11.9810 C.ar    1  UNL1        0.0378
     28 C          65.3191   92.2881   12.9154 C.ar    1  UNL1        0.0076
     29 C          68.9644   93.0440   15.7613 C.3     1  UNL1        0.1152
     30 N          67.9722   92.4179   14.8268 N.am    1  UNL1       -0.2726
     31 C          68.4261   91.8774   13.5032 C.3     1  UNL1        0.1152
     32 C          66.5260   92.3323   15.2158 C.2     1  UNL1        0.2491
     33 O          66.0721   92.8728   16.5393 O.2     1  UNL1       -0.2699
@<TRIPOS>BOND
     1    29    30    1
     2    30    31    1
     3    30    32   am
     4    32    33    2
     5    32    23    1
     6    23    24   ar
     7    24    25   ar
     8    25    26   ar
     9    26    22    1
    10    22     1    1
    11     1     2   ar
    12     2     3   ar
    13     3     7    1
    14     7     8    2
    15     8     9    1
    16     9    10    2
    17    10    11    1
    18    11    12    2
    19    12    13    1
    20    13    14    2
    21    14    15    1
    22     3     4   ar
    23     4     5   ar
    24     5    16    1
    25    16    17    1
    26    17    18    1
    27    18    19    1
    28    19    20    1
    29    20    21    1
    30     5     6   ar
    31    26    27   ar
    32    27    28   ar
    33    28    23   ar
    34     6     1   ar
    35    15     7    1
    36    21    16    1
    37    15    11    1
@<TRIPOS>MOLECULE
*****
 33 37 0 0 0
SMALL
GASTEIGER

@<TRIPOS>ATOM
      1 C          62.7295   89.4576   11.9761 C.ar    1  UNL1        0.3283
      2 N          63.2661   88.3353   12.8142 N.ar    1  UNL1       -0.1750
      3 C          62.9662   86.9129   12.4438 C.ar    1  UNL1        0.1665
      4 N          62.1297   86.6129   11.2354 N.ar    1  UNL1       -0.1946
      5 C          61.5931   87.7353   10.3973 C.ar    1  UNL1        0.2255
      6 N          61.8930   89.1576   10.7676 N.ar    1  UNL1       -0.1607
      7 C          63.5028   85.7906   13.2820 C.2     1  UNL1        0.0249
      8 C          64.1303   86.0821   14.6129 C.2     1  UNL1       -0.0005
      9 C          64.6669   84.9599   15.4510 C.2     1  UNL1        0.0011
     10 C          64.5761   83.5460   14.9582 C.2     1  UNL1        0.0172
     11 C          63.9486   83.2545   13.6273 C.2     1  UNL1        0.0900
     12 N          63.7200   81.9712   12.8850 N.2     1  UNL1       -0.1519
     13 N          63.0421   82.3005   11.5881 N.2     1  UNL1       -0.1507
     14 C          62.8517   83.7872   11.5289 C.2     1  UNL1        0.1058
     15 C          63.4120   84.3768   12.7892 C.3     1  UNL1        0.1103
     16 N          60.7567   87.4354    9.1889 N.pl3   1  UNL1       -0.2729
     17 C          59.8622   88.4937    8.6143 C.3     1  UNL1        0.1257
     18 C          59.0257   88.1936    7.4059 C.3     1  UNL1        0.1637
     19 O          59.0837   86.8354    6.7721 O.3     1  UNL1       -0.3501
     20 C          59.9781   85.7771    7.3466 C.3     1  UNL1        0.1637
     21 C          60.8146   86.0771    8.5550 C.3     1  UNL1        0.1257
     22 O          63.0293   90.8799   12.3464 O.3     1  UNL1       -0.4222
     23 C          67.1653   92.0293   13.6966 C.ar    1  UNL1        0.0538
     24 C          66.6271   92.5542   12.3986 C.ar    1  UNL1        0.0076
     25 C          65.2484   92.1711   11.9485 C.ar    1  UNL1        0.0378
     26 C          64.4080   91.2630   12.7965 C.ar    1  UNL1        0.1487
     27 C          64.9462   90.7381   14.0945 C.ar    1  UNL1        0.0378
     28 C          66.3248   91.1212   14.5446 C.ar    1  UNL1        0.0076
     29 C          70.1033   93.6433   15.8209 C.3     1  UNL1        0.1152
     30 N          68.7247   93.2602   15.3709 N.am    1  UNL1       -0.2726
     31 C          67.5268   93.7248   16.1450 C.3     1  UNL1        0.1152
     32 C          68.5439   92.4124   14.1466 C.2     1  UNL1        0.2491
     33 O          69.7417   91.9479   13.3725 O.2     1  UNL1       -0.2699
@<TRIPOS>BOND
     1    29    30    1
     2    30    31    1
     3    30    32   am
     4    32    33    2
     5    32    23    1
     6    23    24   ar
     7    24    25   ar
     8    25    26   ar
     9    26    22    1
    10    22     1    1
    11     1     2   ar
    12     2     3   ar
    13     3     7    1
    14     7     8    2
    15     8     9    1
    16     9    10    2
    17    10    11    1
    18    11    12    2
    19    12    13    1
    20    13    14    2
    21    14    15    1
    22     3     4   ar
    23     4     5   ar
    24     5    16    1
    25    16    17    1
    26    17    18    1
    27    18    19    1
    28    19    20    1
    29    20    21    1
    30     5     6   ar
    31    26    27   ar
    32    27    28   ar
    33    28    23   ar
    34     6     1   ar
    35    15     7    1
    36    21    16    1
    37    15    11    1
@<TRIPOS>MOLECULE
*****
 33 37 0 0 0
SMALL
GASTEIGER

@<TRIPOS>ATOM
      1 C          62.1997   88.5111   12.3424 C.ar    1  UNL1        0.3283
      2 N          62.8051   87.1575   12.5681 N.ar    1  UNL1       -0.1750
      3 C          62.5999   86.0664   11.5593 C.ar    1  UNL1        0.1665
      4 N          61.7892   86.3291   10.3249 N.ar    1  UNL1       -0.1946
      5 C          61.1837   87.6828   10.0993 C.ar    1  UNL1        0.2255
      6 N          61.3889   88.7739   11.1080 N.ar    1  UNL1       -0.1607
      7 C          63.2055   84.7128   11.7849 C.2     1  UNL1        0.0249
      8 C          63.7906   83.9513   10.6326 C.2     1  UNL1       -0.0005
      9 C          64.3961   82.5977   10.8583 C.2     1  UNL1        0.0011
     10 C          64.4165   82.0054   12.2363 C.2     1  UNL1        0.0172
     11 C          63.8314   82.7669   13.3886 C.2     1  UNL1        0.0900
     12 N          63.7084   82.4414   14.8477 N.2     1  UNL1       -0.1519
     13 N          63.0269   83.5940   15.5238 N.2     1  UNL1       -0.1507
     14 C          62.7287   84.6317   14.4826 C.2     1  UNL1        0.1058
     15 C          63.2259   84.1205   13.1629 C.3     1  UNL1        0.1103
     16 N          60.3730   87.9455    8.8649 N.pl3   1  UNL1       -0.2729
     17 C          59.6985   86.8093    8.1547 C.3     1  UNL1        0.1257
     18 C          58.8878   87.0720    6.9202 C.3     1  UNL1        0.1637
     19 O          58.7516   88.4708    6.3961 O.3     1  UNL1       -0.3501
     20 C          59.4261   89.6069    7.1062 C.3     1  UNL1        0.1637
     21 C          60.2368   89.3443    8.3406 C.3     1  UNL1        0.1257
     22 O          62.4049   89.6021   13.3512 O.3     1  UNL1       -0.4222
     23 C          66.4734   91.4549   13.8655 C.ar    1  UNL1        0.0538
     24 C          65.5461   91.9646   12.8023 C.ar    1  UNL1        0.0076
     25 C          64.1899   91.3471   12.6308 C.ar    1  UNL1        0.0378
     26 C          63.7610   90.2198   13.5226 C.ar    1  UNL1        0.1487
     27 C          64.6883   89.7101   14.5858 C.ar    1  UNL1        0.0378
     28 C          66.0444   90.3276   14.7573 C.ar    1  UNL1        0.0076
     29 C          69.5158   93.4375   15.4663 C.3     1  UNL1        0.1152
     30 N          68.1597   92.8199   15.2949 N.am    1  UNL1       -0.2726
     31 C          67.1337   92.9498   16.3813 C.3     1  UNL1        0.1152
     32 C          67.8295   92.0725   14.0369 C.2     1  UNL1        0.2491
     33 O          68.8555   91.9427   12.9505 O.2     1  UNL1       -0.2699
@<TRIPOS>BOND
     1    29    30    1
     2    30    31    1
     3    30    32   am
     4    32    33    2
     5    32    23    1
     6    23    24   ar
     7    24    25   ar
     8    25    26   ar
     9    26    22    1
    10    22     1    1
    11     1     2   ar
    12     2     3   ar
    13     3     7    1
    14     7     8    2
    15     8     9    1
    16     9    10    2
    17    10    11    1
    18    11    12    2
    19    12    13    1
    20    13    14    2
    21    14    15    1
    22     3     4   ar
    23     4     5   ar
    24     5    16    1
    25    16    17    1
    26    17    18    1
    27    18    19    1
    28    19    20    1
    29    20    21    1
    30     5     6   ar
    31    26    27   ar
    32    27    28   ar
    33    28    23   ar
    34     6     1   ar
    35    15     7    1
    36    21    16    1
    37    15    11    1
