@<TRIPOS>MOLECULE
*****
 35 39 0 0 0
SMALL
GASTEIGER

@<TRIPOS>ATOM
      1 C          64.3926   91.4476   15.8970 C.2     1  UNL1        0.2553
      2 O          63.5295   92.2542   16.8213 O.2     1  UNL1       -0.2720
      3 N          64.0862   89.9988   15.6581 N.am    1  UNL1       -0.2773
      4 C          62.9166   89.3566   16.3435 C.3     1  UNL1        0.0949
      5 C          62.6102   87.9078   16.1046 C.3     1  UNL1        0.0375
      6 C          63.4733   87.1012   15.1803 C.3     1  UNL1        0.0612
      7 C          64.6428   87.7434   14.4949 C.3     1  UNL1        0.0375
      8 C          64.9493   89.1921   14.7338 C.3     1  UNL1        0.0949
      9 N          63.1668   85.6524   14.9414 N.3     1  UNL1       -0.2699
     10 C          62.6427   84.8022   16.0605 C.3     1  UNL1        0.0770
     11 C          62.3363   83.3534   15.8216 C.3     1  UNL1        0.0434
     12 C          62.5540   82.7547   14.4636 C.ar    1  UNL1       -0.0234
     13 C          62.2476   81.3060   14.2247 C.ar    1  UNL1       -0.0045
     14 C          62.4653   80.7074   12.8667 C.ar    1  UNL1       -0.0003
     15 C          62.9894   81.5576   11.7475 C.ar    1  UNL1       -0.0003
     16 C          63.2958   83.0063   11.9864 C.ar    1  UNL1       -0.0032
     17 C          63.0781   83.6049   13.3444 C.ar    1  UNL1       -0.0101
     18 C          63.3845   85.0538   13.5834 C.3     1  UNL1        0.0988
     19 N          66.6715   92.4939   12.4537 N.3     1  UNL1       -0.2688
     20 C          67.3974   93.0495   13.6430 C.3     1  UNL1        0.0756
     21 C          66.8427   92.8474   15.0220 C.3     1  UNL1        0.0590
     22 C          65.5621   92.0898   15.2116 C.3     1  UNL1        0.2042
     23 F          65.8819   92.4224   16.6389 F       1  UNL1       -0.2306
     24 C          64.8362   91.5341   14.0224 C.3     1  UNL1        0.0590
     25 C          65.3909   91.7362   12.6434 C.3     1  UNL1        0.0756
     26 C          67.2261   92.6959   11.0748 C.3     1  UNL1        0.0993
     27 N          64.2003   96.8554   10.3381 N.pl3   1  UNL1       -0.3426
     28 C          65.3821   96.0219    9.9400 C.ar    1  UNL1        0.1251
     29 C          65.7133   94.7756   10.7064 C.ar    1  UNL1        0.0310
     30 C          66.8950   93.9420   10.3083 C.ar    1  UNL1       -0.0018
     31 C          67.7457   94.3546    9.1437 C.ar    1  UNL1        0.0179
     32 C          67.4145   95.6007    8.3773 C.ar    1  UNL1        0.1000
     33 N          66.2327   96.4344    8.7754 N.ar    1  UNL1       -0.2296
     34 H          63.6420   96.5846   11.1025 H       1  UNL1        0.1437
     35 H          63.9829   97.6733    9.8351 H       1  UNL1        0.1437
@<TRIPOS>BOND
     1    27    28    1
     2    28    29   ar
     3    29    30   ar
     4    30    26    1
     5    26    19    1
     6    19    20    1
     7    20    21    1
     8    21    22    1
     9    22    23    1
    10    22     1    1
    11     1     2    2
    12     1     3   am
    13     3     4    1
    14     4     5    1
    15     5     6    1
    16     6     9    1
    17     9    10    1
    18    10    11    1
    19    11    12    1
    20    12    13   ar
    21    13    14   ar
    22    14    15   ar
    23    15    16   ar
    24    16    17   ar
    25    17    18    1
    26     6     7    1
    27     7     8    1
    28    22    24    1
    29    24    25    1
    30    30    31   ar
    31    31    32   ar
    32    32    33   ar
    33    33    28   ar
    34    25    19    1
    35     8     3    1
    36    18     9    1
    37    17    12   ar
    38    27    34    1
    39    27    35    1
@<TRIPOS>MOLECULE
*****
 35 39 0 0 0
SMALL
GASTEIGER

@<TRIPOS>ATOM
      1 C          64.1068   90.6766   15.9488 C.2     1  UNL1        0.2553
      2 O          63.5292   91.2480   17.2097 O.2     1  UNL1       -0.2720
      3 N          63.8805   89.2337   15.6068 N.am    1  UNL1       -0.2773
      4 C          63.0767   88.3623   16.5257 C.3     1  UNL1        0.0949
      5 C          62.8504   86.9194   16.1837 C.3     1  UNL1        0.0375
      6 C          63.4279   86.3481   14.9228 C.3     1  UNL1        0.0612
      7 C          64.2318   87.2195   14.0039 C.3     1  UNL1        0.0375
      8 C          64.4581   88.6623   14.3459 C.3     1  UNL1        0.0949
      9 N          63.2017   84.9052   14.5807 N.3     1  UNL1       -0.2699
     10 C          62.7913   83.9364   15.6499 C.3     1  UNL1        0.0770
     11 C          62.5650   82.4936   15.3079 C.3     1  UNL1        0.0434
     12 C          62.7491   82.0194   13.8967 C.ar    1  UNL1       -0.0234
     13 C          62.5228   80.5766   13.5547 C.ar    1  UNL1       -0.0045
     14 C          62.7069   80.1026   12.1436 C.ar    1  UNL1       -0.0003
     15 C          63.1173   81.0713   11.0745 C.ar    1  UNL1       -0.0003
     16 C          63.3436   82.5142   11.4164 C.ar    1  UNL1       -0.0032
     17 C          63.1595   82.9882   12.8276 C.ar    1  UNL1       -0.0101
     18 C          63.3858   84.4311   13.1696 C.3     1  UNL1        0.0988
     19 N          64.9954   92.3912   12.1522 N.3     1  UNL1       -0.2688
     20 C          66.0136   92.9194   13.1187 C.3     1  UNL1        0.0756
     21 C          65.9713   92.4978   14.5576 C.3     1  UNL1        0.0590
     22 C          64.9107   91.5481   15.0299 C.3     1  UNL1        0.2042
     23 F          65.6497   91.7736   16.3156 F       1  UNL1       -0.2306
     24 C          63.8925   91.0198   14.0634 C.3     1  UNL1        0.0590
     25 C          63.9348   91.4414   12.6245 C.3     1  UNL1        0.0756
     26 C          65.0377   92.8128   10.7132 C.3     1  UNL1        0.0993
     27 N          67.9027   96.5564    8.5277 N.pl3   1  UNL1       -0.3426
     28 C          67.7618   95.1435    9.0110 C.ar    1  UNL1        0.1251
     29 C          66.4702   94.6846    9.6205 C.ar    1  UNL1        0.0310
     30 C          66.3292   93.2716   10.1038 C.ar    1  UNL1       -0.0018
     31 C          67.4797   92.3174    9.9777 C.ar    1  UNL1        0.0179
     32 C          68.7712   92.7763    9.3682 C.ar    1  UNL1        0.1000
     33 N          68.9122   94.1893    8.8849 N.ar    1  UNL1       -0.2296
     34 H          67.1476   97.1827    8.6105 H       1  UNL1        0.1437
     35 H          68.7504   96.8576    8.1277 H       1  UNL1        0.1437
@<TRIPOS>BOND
     1    27    28    1
     2    28    29   ar
     3    29    30   ar
     4    30    26    1
     5    26    19    1
     6    19    20    1
     7    20    21    1
     8    21    22    1
     9    22    23    1
    10    22     1    1
    11     1     2    2
    12     1     3   am
    13     3     4    1
    14     4     5    1
    15     5     6    1
    16     6     9    1
    17     9    10    1
    18    10    11    1
    19    11    12    1
    20    12    13   ar
    21    13    14   ar
    22    14    15   ar
    23    15    16   ar
    24    16    17   ar
    25    17    18    1
    26     6     7    1
    27     7     8    1
    28    22    24    1
    29    24    25    1
    30    30    31   ar
    31    31    32   ar
    32    32    33   ar
    33    33    28   ar
    34    25    19    1
    35     8     3    1
    36    18     9    1
    37    17    12   ar
    38    27    34    1
    39    27    35    1
@<TRIPOS>MOLECULE
*****
 35 39 0 0 0
SMALL
GASTEIGER

@<TRIPOS>ATOM
      1 C          63.8235   89.0739   14.8163 C.2     1  UNL1        0.2553
      2 O          63.9418   89.4606   16.2607 O.2     1  UNL1       -0.2720
      3 N          63.6386   87.6341   14.4380 N.am    1  UNL1       -0.2773
      4 C          63.5720   86.5812   15.5042 C.3     1  UNL1        0.0949
      5 C          63.3872   85.1415   15.1260 C.3     1  UNL1        0.0375
      6 C          63.2689   84.7548   13.6816 C.3     1  UNL1        0.0612
      7 C          63.3355   85.8077   12.6154 C.3     1  UNL1        0.0375
      8 C          63.5204   87.2474   12.9936 C.3     1  UNL1        0.0949
      9 N          63.0840   83.3150   13.3033 N.3     1  UNL1       -0.2699
     10 C          62.7480   82.3003   14.3557 C.3     1  UNL1        0.0770
     11 C          62.5631   80.8606   13.9775 C.3     1  UNL1        0.0434
     12 C          62.7142   80.4356   12.5469 C.ar    1  UNL1       -0.0234
     13 C          62.5293   78.9959   12.1686 C.ar    1  UNL1       -0.0045
     14 C          62.6804   78.5710   10.7381 C.ar    1  UNL1       -0.0003
     15 C          63.0163   79.5857    9.6857 C.ar    1  UNL1       -0.0003
     16 C          63.2012   81.0254   10.0639 C.ar    1  UNL1       -0.0032
     17 C          63.0502   81.4503   11.4945 C.ar    1  UNL1       -0.0101
     18 C          63.2350   82.8901   11.8728 C.3     1  UNL1        0.0988
     19 N          65.6138   92.4301   12.8993 N.3     1  UNL1       -0.2688
     20 C          64.3831   92.0843   12.1145 C.3     1  UNL1        0.0756
     21 C          63.5212   90.9327   12.5399 C.3     1  UNL1        0.0590
     22 C          63.8901   90.1268   13.7501 C.3     1  UNL1        0.2042
     23 F          62.6363   89.4154   13.3356 F       1  UNL1       -0.2306
     24 C          65.1208   90.4726   14.5349 C.3     1  UNL1        0.0590
     25 C          65.9827   91.6242   14.1095 C.3     1  UNL1        0.0756
     26 C          66.4756   93.5817   12.4739 C.3     1  UNL1        0.0993
     27 N          67.6590   96.2018    8.1455 N.pl3   1  UNL1       -0.3426
     28 C          67.6502   94.9220    8.9279 C.ar    1  UNL1        0.1251
     29 C          67.0673   94.8917   10.3097 C.ar    1  UNL1        0.0310
     30 C          67.0585   93.6120   11.0922 C.ar    1  UNL1       -0.0018
     31 C          67.6327   92.3625   10.4928 C.ar    1  UNL1        0.0179
     32 C          68.2155   92.3929    9.1110 C.ar    1  UNL1        0.1000
     33 N          68.2243   93.6726    8.3286 N.ar    1  UNL1       -0.2296
     34 H          67.2822   97.0218    8.5389 H       1  UNL1        0.1437
     35 H          68.0416   96.2217    7.2386 H       1  UNL1        0.1437
@<TRIPOS>BOND
     1    27    28    1
     2    28    29   ar
     3    29    30   ar
     4    30    26    1
     5    26    19    1
     6    19    20    1
     7    20    21    1
     8    21    22    1
     9    22    23    1
    10    22     1    1
    11     1     2    2
    12     1     3   am
    13     3     4    1
    14     4     5    1
    15     5     6    1
    16     6     9    1
    17     9    10    1
    18    10    11    1
    19    11    12    1
    20    12    13   ar
    21    13    14   ar
    22    14    15   ar
    23    15    16   ar
    24    16    17   ar
    25    17    18    1
    26     6     7    1
    27     7     8    1
    28    22    24    1
    29    24    25    1
    30    30    31   ar
    31    31    32   ar
    32    32    33   ar
    33    33    28   ar
    34    25    19    1
    35     8     3    1
    36    18     9    1
    37    17    12   ar
    38    27    34    1
    39    27    35    1
@<TRIPOS>MOLECULE
*****
 35 39 0 0 0
SMALL
GASTEIGER

@<TRIPOS>ATOM
      1 C          62.6239   89.6603   12.0337 C.2     1  UNL1        0.2553
      2 O          61.7264   90.3666   11.0613 O.2     1  UNL1       -0.2720
      3 N          62.6195   88.1620   12.1064 N.am    1  UNL1       -0.2773
      4 C          61.7176   87.3701   11.2068 C.3     1  UNL1        0.0949
      5 C          61.7132   85.8719   11.2795 C.3     1  UNL1        0.0375
      6 C          62.6107   85.1657   12.2519 C.3     1  UNL1        0.0612
      7 C          63.5127   85.9576   13.1515 C.3     1  UNL1        0.0375
      8 C          63.5171   87.4558   13.0788 C.3     1  UNL1        0.0949
      9 N          62.6063   83.6674   12.3247 N.3     1  UNL1       -0.2699
     10 C          62.4187   82.9812   13.6453 C.3     1  UNL1        0.0770
     11 C          62.4143   81.4830   13.7181 C.3     1  UNL1        0.0434
     12 C          62.5975   80.6709   12.4703 C.ar    1  UNL1       -0.0234
     13 C          62.5932   79.1727   12.5431 C.ar    1  UNL1       -0.0045
     14 C          62.7764   78.3607   11.2953 C.ar    1  UNL1       -0.0003
     15 C          62.9641   79.0469    9.9747 C.ar    1  UNL1       -0.0003
     16 C          62.9685   80.5450    9.9019 C.ar    1  UNL1       -0.0032
     17 C          62.7852   81.3571   11.1497 C.ar    1  UNL1       -0.0101
     18 C          62.7896   82.8553   11.0769 C.3     1  UNL1        0.0988
     19 N          65.4870   92.7187   12.8037 N.3     1  UNL1       -0.2688
     20 C          65.1999   92.0494   14.1151 C.3     1  UNL1        0.0756
     21 C          64.2193   90.9161   14.1798 C.3     1  UNL1        0.0590
     22 C          63.5259   90.4522   12.9333 C.3     1  UNL1        0.2042
     23 F          62.9255   89.5079   13.9321 F       1  UNL1       -0.2306
     24 C          63.8130   91.1215   11.6219 C.3     1  UNL1        0.0590
     25 C          64.7936   92.2548   11.5572 C.3     1  UNL1        0.0756
     26 C          66.4676   93.8520   12.7389 C.3     1  UNL1        0.0993
     27 N          68.0261   94.1810    7.7930 N.pl3   1  UNL1       -0.3426
     28 C          67.3954   94.8084    9.0006 C.ar    1  UNL1        0.1251
     29 C          67.2468   94.0166   10.2660 C.ar    1  UNL1        0.0310
     30 C          66.6161   94.6439   11.4737 C.ar    1  UNL1       -0.0018
     31 C          66.1339   96.0631   11.4162 C.ar    1  UNL1        0.0179
     32 C          66.2825   96.8549   10.1509 C.ar    1  UNL1        0.1000
     33 N          66.9132   96.2276    8.9432 N.ar    1  UNL1       -0.2296
     34 H          68.3426   93.2495    7.8308 H       1  UNL1        0.1437
     35 H          68.1236   94.7007    6.9625 H       1  UNL1        0.1437
@<TRIPOS>BOND
     1    27    28    1
     2    28    29   ar
     3    29    30   ar
     4    30    26    1
     5    26    19    1
     6    19    20    1
     7    20    21    1
     8    21    22    1
     9    22    23    1
    10    22     1    1
    11     1     2    2
    12     1     3   am
    13     3     4    1
    14     4     5    1
    15     5     6    1
    16     6     9    1
    17     9    10    1
    18    10    11    1
    19    11    12    1
    20    12    13   ar
    21    13    14   ar
    22    14    15   ar
    23    15    16   ar
    24    16    17   ar
    25    17    18    1
    26     6     7    1
    27     7     8    1
    28    22    24    1
    29    24    25    1
    30    30    31   ar
    31    31    32   ar
    32    32    33   ar
    33    33    28   ar
    34    25    19    1
    35     8     3    1
    36    18     9    1
    37    17    12   ar
    38    27    34    1
    39    27    35    1
@<TRIPOS>MOLECULE
*****
 35 39 0 0 0
SMALL
GASTEIGER

@<TRIPOS>ATOM
      1 C          63.0257   86.2992   16.6873 C.2     1  UNL1        0.2553
      2 O          62.0479   86.3706   17.8225 O.2     1  UNL1       -0.2720
      3 N          63.5422   87.5610   16.0618 N.am    1  UNL1       -0.2773
      4 C          63.0808   88.8942   16.5716 C.3     1  UNL1        0.0949
      5 C          63.5972   90.1559   15.9461 C.3     1  UNL1        0.0375
      6 C          64.5750   90.0845   14.8109 C.3     1  UNL1        0.0612
      7 C          65.0364   88.7514   14.3012 C.3     1  UNL1        0.0375
      8 C          64.5200   87.4896   14.9266 C.3     1  UNL1        0.0949
      9 N          65.0915   91.3463   14.1854 N.3     1  UNL1       -0.2699
     10 C          65.8360   92.3466   15.0193 C.3     1  UNL1        0.0770
     11 C          66.3525   93.6083   14.3939 C.3     1  UNL1        0.0434
     12 C          66.1245   93.8699   12.9345 C.ar    1  UNL1       -0.0234
     13 C          66.6409   95.1316   12.3091 C.ar    1  UNL1       -0.0045
     14 C          66.4129   95.3932   10.8498 C.ar    1  UNL1       -0.0003
     15 C          65.6684   94.3930   10.0159 C.ar    1  UNL1       -0.0003
     16 C          65.1520   93.1312   10.6413 C.ar    1  UNL1       -0.0032
     17 C          65.3800   92.8697   12.1006 C.ar    1  UNL1       -0.0101
     18 C          64.8635   91.6079   12.7261 C.3     1  UNL1        0.0988
     19 N          62.4138   82.5529   14.7547 N.3     1  UNL1       -0.2688
     20 C          63.8576   82.6054   15.1579 C.3     1  UNL1        0.0756
     21 C          64.3943   83.8120   15.8693 C.3     1  UNL1        0.0590
     22 C          63.4871   84.9661   16.1775 C.3     1  UNL1        0.2042
     23 F          64.7707   85.4816   16.7577 F       1  UNL1       -0.2306
     24 C          62.0432   84.9136   15.7744 C.3     1  UNL1        0.0590
     25 C          61.5065   83.7070   15.0629 C.3     1  UNL1        0.0756
     26 C          61.8771   81.3463   14.0433 C.3     1  UNL1        0.0993
     27 N          62.8013   77.8451   10.3167 N.pl3   1  UNL1       -0.3426
     28 C          62.8174   79.2660   10.7969 C.ar    1  UNL1        0.1251
     29 C          62.3392   79.5957   12.1800 C.ar    1  UNL1        0.0310
     30 C          62.3553   81.0167   12.6603 C.ar    1  UNL1       -0.0018
     31 C          62.8497   82.1079   11.7576 C.ar    1  UNL1        0.0179
     32 C          63.3279   81.7782   10.3747 C.ar    1  UNL1        0.1000
     33 N          63.3117   80.3572    9.8943 N.ar    1  UNL1       -0.2296
     34 H          62.4768   77.1289   10.9092 H       1  UNL1        0.1437
     35 H          63.1151   77.6286    9.4090 H       1  UNL1        0.1437
@<TRIPOS>BOND
     1    27    28    1
     2    28    29   ar
     3    29    30   ar
     4    30    26    1
     5    26    19    1
     6    19    20    1
     7    20    21    1
     8    21    22    1
     9    22    23    1
    10    22     1    1
    11     1     2    2
    12     1     3   am
    13     3     4    1
    14     4     5    1
    15     5     6    1
    16     6     9    1
    17     9    10    1
    18    10    11    1
    19    11    12    1
    20    12    13   ar
    21    13    14   ar
    22    14    15   ar
    23    15    16   ar
    24    16    17   ar
    25    17    18    1
    26     6     7    1
    27     7     8    1
    28    22    24    1
    29    24    25    1
    30    30    31   ar
    31    31    32   ar
    32    32    33   ar
    33    33    28   ar
    34    25    19    1
    35     8     3    1
    36    18     9    1
    37    17    12   ar
    38    27    34    1
    39    27    35    1
@<TRIPOS>MOLECULE
*****
 35 39 0 0 0
SMALL
GASTEIGER

@<TRIPOS>ATOM
      1 C          59.5827   88.2462    7.4185 C.2     1  UNL1        0.2553
      2 O          59.4781   86.7947    7.0550 O.2     1  UNL1       -0.2720
      3 N          60.5025   88.6788    8.5216 N.am    1  UNL1       -0.2773
      4 C          61.3177   87.6598    9.2613 C.3     1  UNL1        0.0949
      5 C          62.2375   88.0923   10.3643 C.3     1  UNL1        0.0375
      6 C          62.3421   89.5438   10.7278 C.3     1  UNL1        0.0612
      7 C          61.5269   90.5628    9.9882 C.3     1  UNL1        0.0375
      8 C          60.6071   90.1303    8.8851 C.3     1  UNL1        0.0949
      9 N          63.2620   89.9764   11.8309 N.3     1  UNL1       -0.2699
     10 C          63.4390   89.1103   13.0427 C.3     1  UNL1        0.0770
     11 C          64.3588   89.5428   14.1458 C.3     1  UNL1        0.0434
     12 C          65.1016   90.8415   14.0372 C.ar    1  UNL1       -0.0234
     13 C          66.0214   91.2741   15.1403 C.ar    1  UNL1       -0.0045
     14 C          66.7641   92.5727   15.0316 C.ar    1  UNL1       -0.0003
     15 C          66.5870   93.4388   13.8198 C.ar    1  UNL1       -0.0003
     16 C          65.6672   93.0063   12.7167 C.ar    1  UNL1       -0.0032
     17 C          64.9245   91.7077   12.8254 C.ar    1  UNL1       -0.0101
     18 C          64.0047   91.2751   11.7222 C.3     1  UNL1        0.0988
     19 N          59.1342   91.6054    4.8380 N.3     1  UNL1       -0.2688
     20 C          57.7549   91.1856    5.2517 C.3     1  UNL1        0.0756
     21 C          57.5715   90.0155    6.1721 C.3     1  UNL1        0.0590
     22 C          58.7674   89.2652    6.6788 C.3     1  UNL1        0.2042
     23 F          57.6712   88.4915    7.3494 F       1  UNL1       -0.2306
     24 C          60.1468   89.6850    6.2652 C.3     1  UNL1        0.0590
     25 C          60.3302   90.8551    5.3447 C.3     1  UNL1        0.0756
     26 C          59.3177   92.7755    3.9175 C.3     1  UNL1        0.0993
     27 N          64.1792   92.1879    2.1796 N.pl3   1  UNL1       -0.3426
     28 C          62.7185   92.3937    1.9078 C.ar    1  UNL1        0.1251
     29 C          61.7484   92.4817    3.0485 C.ar    1  UNL1        0.0310
     30 C          60.2876   92.6876    2.7768 C.ar    1  UNL1       -0.0018
     31 C          59.7969   92.8055    1.3642 C.ar    1  UNL1        0.0179
     32 C          60.7670   92.7176    0.2235 C.ar    1  UNL1        0.1000
     33 N          62.2277   92.5117    0.4953 N.ar    1  UNL1       -0.2296
     34 H          64.5012   92.1105    3.1067 H       1  UNL1        0.1437
     35 H          64.8159   92.1302    1.4309 H       1  UNL1        0.1437
@<TRIPOS>BOND
     1    27    28    1
     2    28    29   ar
     3    29    30   ar
     4    30    26    1
     5    26    19    1
     6    19    20    1
     7    20    21    1
     8    21    22    1
     9    22    23    1
    10    22     1    1
    11     1     2    2
    12     1     3   am
    13     3     4    1
    14     4     5    1
    15     5     6    1
    16     6     9    1
    17     9    10    1
    18    10    11    1
    19    11    12    1
    20    12    13   ar
    21    13    14   ar
    22    14    15   ar
    23    15    16   ar
    24    16    17   ar
    25    17    18    1
    26     6     7    1
    27     7     8    1
    28    22    24    1
    29    24    25    1
    30    30    31   ar
    31    31    32   ar
    32    32    33   ar
    33    33    28   ar
    34    25    19    1
    35     8     3    1
    36    18     9    1
    37    17    12   ar
    38    27    34    1
    39    27    35    1
@<TRIPOS>MOLECULE
*****
 35 39 0 0 0
SMALL
GASTEIGER

@<TRIPOS>ATOM
      1 C          62.1097   89.9579   10.9184 C.2     1  UNL1        0.2553
      2 O          60.9643   90.4934   10.1114 O.2     1  UNL1       -0.2720
      3 N          62.1702   88.4980   11.2578 N.am    1  UNL1       -0.2773
      4 C          61.0854   87.5737   10.7900 C.3     1  UNL1        0.0949
      5 C          61.1459   86.1138   11.1293 C.3     1  UNL1        0.0375
      6 C          62.2912   85.5783   11.9363 C.3     1  UNL1        0.0612
      7 C          63.3761   86.5026   12.4041 C.3     1  UNL1        0.0375
      8 C          63.3156   87.9624   12.0648 C.3     1  UNL1        0.0949
      9 N          62.3518   84.1184   12.2757 N.3     1  UNL1       -0.2699
     10 C          62.2127   83.6734   13.7014 C.3     1  UNL1        0.0770
     11 C          62.2732   82.2136   14.0408 C.3     1  UNL1        0.0434
     12 C          62.4729   81.1987   12.9544 C.ar    1  UNL1       -0.0234
     13 C          62.5334   79.7388   13.2938 C.ar    1  UNL1       -0.0045
     14 C          62.7330   78.7240   12.2074 C.ar    1  UNL1       -0.0003
     15 C          62.8721   79.1690   10.7817 C.ar    1  UNL1       -0.0003
     16 C          62.8115   80.6288   10.4423 C.ar    1  UNL1       -0.0032
     17 C          62.6119   81.6436   11.5287 C.ar    1  UNL1       -0.0101
     18 C          62.5514   83.1035   11.1893 C.3     1  UNL1        0.0988
     19 N          64.5965   91.6874   13.9132 N.3     1  UNL1       -0.2688
     20 C          64.9841   92.3159   12.6075 C.3     1  UNL1        0.0756
     21 C          64.2831   91.9133   11.3440 C.3     1  UNL1        0.0590
     22 C          63.1945   90.8822   11.3862 C.3     1  UNL1        0.2042
     23 F          63.2053   91.1896    9.9181 F       1  UNL1       -0.2306
     24 C          62.8069   90.2537   12.6918 C.3     1  UNL1        0.0590
     25 C          63.5079   90.6563   13.9554 C.3     1  UNL1        0.0756
     26 C          65.2975   92.0900   15.1767 C.3     1  UNL1        0.0993
     27 N          69.9821   91.7014   12.9623 N.pl3   1  UNL1       -0.3426
     28 C          69.0955   92.2565   14.0374 C.ar    1  UNL1        0.1251
     29 C          67.6398   91.8957   14.0696 C.ar    1  UNL1        0.0310
     30 C          66.7531   92.4507   15.1446 C.ar    1  UNL1       -0.0018
     31 C          67.3220   93.3666   16.1875 C.ar    1  UNL1        0.0179
     32 C          68.7776   93.7273   16.1553 C.ar    1  UNL1        0.1000
     33 N          69.6644   93.1723   15.0803 N.ar    1  UNL1       -0.2296
     34 H          69.6087   91.1003   12.2779 H       1  UNL1        0.1437
     35 H          70.9375   91.9381   12.9412 H       1  UNL1        0.1437
@<TRIPOS>BOND
     1    27    28    1
     2    28    29   ar
     3    29    30   ar
     4    30    26    1
     5    26    19    1
     6    19    20    1
     7    20    21    1
     8    21    22    1
     9    22    23    1
    10    22     1    1
    11     1     2    2
    12     1     3   am
    13     3     4    1
    14     4     5    1
    15     5     6    1
    16     6     9    1
    17     9    10    1
    18    10    11    1
    19    11    12    1
    20    12    13   ar
    21    13    14   ar
    22    14    15   ar
    23    15    16   ar
    24    16    17   ar
    25    17    18    1
    26     6     7    1
    27     7     8    1
    28    22    24    1
    29    24    25    1
    30    30    31   ar
    31    31    32   ar
    32    32    33   ar
    33    33    28   ar
    34    25    19    1
    35     8     3    1
    36    18     9    1
    37    17    12   ar
    38    27    34    1
    39    27    35    1
