@<TRIPOS>MOLECULE
*****
 28 30 0 0 0
SMALL
GASTEIGER

@<TRIPOS>ATOM
      1 C          63.4790   90.7054   11.7658 C.ar    1  UNL1        0.1534
      2 C          62.4336   90.7739   10.6924 C.ar    1  UNL1        0.0351
      3 C          61.5091   89.6136   10.4708 C.ar    1  UNL1        0.0722
      4 CL         60.4636   89.6820    9.3973 Cl      1  UNL1       -0.0809
      5 C          61.6301   88.3849   11.3226 C.ar    1  UNL1        0.0577
      6 C          62.6755   88.3164   12.3961 C.ar    1  UNL1        0.0462
      7 C          63.6000   89.4767   12.6177 C.ar    1  UNL1        0.1602
      8 F          64.6455   89.4083   13.6912 F       1  UNL1       -0.2027
      9 O          64.7973   91.8282   10.5406 O.2     1  UNL1       -0.1498
     10 S          64.4035   91.8657   11.9875 S.O2    1  UNL1        0.0772
     11 O          64.0097   91.9031   13.4344 O.2     1  UNL1       -0.1498
     12 N          65.3280   93.0259   12.2091 N.pl3   1  UNL1       -0.1936
     13 H          65.2690   93.8199   11.6301 H       1  UNL1        0.1758
     14 C          66.3425   92.9764   13.3129 C.ar    1  UNL1        0.1786
     15 N          66.4167   93.9097   14.4849 N.ar    1  UNL1       -0.2214
     16 C          67.5810   93.4949   15.3348 C.ar    1  UNL1        0.1079
     17 C          68.2264   92.3052   14.6882 C.ar    1  UNL1        0.0588
     18 S          67.4610   91.9847   13.4385 S.2     1  UNL1       -0.0497
     19 N          60.7056   87.2246   11.1009 N.pl3   1  UNL1       -0.3319
     20 H          59.9088   87.1146   11.6687 H       1  UNL1        0.1468
     21 C          60.9950   86.2320   10.0143 C.3     1  UNL1        0.0870
     22 C          62.3984   85.7509    9.7922 C.3     1  UNL1        0.0213
     23 C          62.9427   84.6205   10.6143 C.3     1  UNL1        0.0067
     24 C          62.6466   84.5509   12.0832 C.3     1  UNL1        0.0322
     25 C          63.1909   83.4205   12.9053 C.3     1  UNL1        0.1422
     26 O          64.0312   82.3595   12.2585 O.3     1  UNL1       -0.3538
     27 C          64.3273   82.4291   10.7896 C.3     1  UNL1        0.1422
     28 C          63.7829   83.5596    9.9675 C.3     1  UNL1        0.0322
@<TRIPOS>BOND
     1     9    10    2
     2    10    11    2
     3    10    12    1
     4    12    14    1
     5    14    15   ar
     6    15    16   ar
     7    16    17   ar
     8    17    18   ar
     9    10     1    1
    10     1     2   ar
    11     2     3   ar
    12     3     4    1
    13     3     5   ar
    14     5    19    1
    15    19    21    1
    16    21    22    1
    17    22    23    1
    18    23    24    1
    19    24    25    1
    20    25    26    1
    21    26    27    1
    22    27    28    1
    23     5     6   ar
    24     6     7   ar
    25     7     8    1
    26    18    14   ar
    27     7     1   ar
    28    28    23    1
    29    12    13    1
    30    19    20    1
@<TRIPOS>MOLECULE
*****
 28 30 0 0 0
SMALL
GASTEIGER

@<TRIPOS>ATOM
      1 C          63.9484   86.8505   14.0753 C.ar    1  UNL1        0.1534
      2 C          64.3470   88.0195   14.9264 C.ar    1  UNL1        0.0351
      3 C          64.1406   89.4178   14.4242 C.ar    1  UNL1        0.0722
      4 CL         64.5392   90.5869   15.2752 Cl      1  UNL1       -0.0809
      5 C          63.5356   89.6469   13.0709 C.ar    1  UNL1        0.0577
      6 C          63.1370   88.4779   12.2198 C.ar    1  UNL1        0.0462
      7 C          63.3434   87.0796   12.7221 C.ar    1  UNL1        0.1602
      8 F          62.9448   85.9105   11.8710 F       1  UNL1       -0.2027
      9 O          62.6692   85.2610   14.6558 O.2     1  UNL1       -0.1498
     10 S          64.1548   85.4521   14.5776 S.O2    1  UNL1        0.0772
     11 O          65.6405   85.6433   14.4993 O.2     1  UNL1       -0.1498
     12 N          64.3612   84.0539   15.0798 N.pl3   1  UNL1       -0.1936
     13 H          64.8795   83.8977   15.9021 H       1  UNL1        0.1758
     14 C          63.7779   82.8936   14.3291 C.ar    1  UNL1        0.1786
     15 N          62.7507   81.9328   14.8504 N.ar    1  UNL1       -0.2214
     16 C          62.4574   80.9358   13.7687 C.ar    1  UNL1        0.1079
     17 C          63.3033   81.2804   12.5789 C.ar    1  UNL1        0.0588
     18 S          64.1195   82.4904   12.9252 S.2     1  UNL1       -0.0497
     19 N          63.3292   91.0452   12.5686 N.pl3   1  UNL1       -0.3319
     20 H          62.5607   91.5734   12.8846 H       1  UNL1        0.1468
     21 C          64.2935   91.6389   11.5850 C.3     1  UNL1        0.0870
     22 C          65.4923   92.3965   12.0738 C.3     1  UNL1        0.0213
     23 C          66.3325   93.1762   11.1063 C.3     1  UNL1        0.0067
     24 C          67.3590   92.4731   10.2683 C.3     1  UNL1        0.0322
     25 C          68.1992   93.2528    9.3008 C.3     1  UNL1        0.1422
     26 O          68.0130   94.7356    9.1713 O.3     1  UNL1       -0.3538
     27 C          66.9866   95.4387   10.0092 C.3     1  UNL1        0.1422
     28 C          66.1463   94.6589   10.9768 C.3     1  UNL1        0.0322
@<TRIPOS>BOND
     1     9    10    2
     2    10    11    2
     3    10    12    1
     4    12    14    1
     5    14    15   ar
     6    15    16   ar
     7    16    17   ar
     8    17    18   ar
     9    10     1    1
    10     1     2   ar
    11     2     3   ar
    12     3     4    1
    13     3     5   ar
    14     5    19    1
    15    19    21    1
    16    21    22    1
    17    22    23    1
    18    23    24    1
    19    24    25    1
    20    25    26    1
    21    26    27    1
    22    27    28    1
    23     5     6   ar
    24     6     7   ar
    25     7     8    1
    26    18    14   ar
    27     7     1   ar
    28    28    23    1
    29    12    13    1
    30    19    20    1
@<TRIPOS>MOLECULE
*****
 28 30 0 0 0
SMALL
GASTEIGER

@<TRIPOS>ATOM
      1 C          64.8375   91.7438   11.9494 C.ar    1  UNL1        0.1534
      2 C          63.8512   91.5970   10.8289 C.ar    1  UNL1        0.0351
      3 C          62.8770   90.4565   10.8318 C.ar    1  UNL1        0.0722
      4 CL         61.8906   90.3097    9.7113 Cl      1  UNL1       -0.0809
      5 C          62.8892   89.4626   11.9553 C.ar    1  UNL1        0.0577
      6 C          63.8755   89.6094   13.0758 C.ar    1  UNL1        0.0462
      7 C          64.8496   90.7499   13.0729 C.ar    1  UNL1        0.1602
      8 F          65.8360   90.8967   14.1935 F       1  UNL1       -0.2027
      9 O          66.2484   92.5079   10.5618 O.2     1  UNL1       -0.1498
     10 S          65.8117   92.8844   11.9466 S.O2    1  UNL1        0.0772
     11 O          65.3750   93.2609   13.3313 O.2     1  UNL1       -0.1498
     12 N          66.7859   94.0250   11.9436 N.pl3   1  UNL1       -0.1936
     13 H          67.4217   94.1312   12.6877 H       1  UNL1        0.1758
     14 C          66.7914   95.0037   10.8069 C.ar    1  UNL1        0.1786
     15 N          67.7599   95.0195    9.6617 N.ar    1  UNL1       -0.2214
     16 C          67.3964   96.1641    8.7629 C.ar    1  UNL1        0.1079
     17 C          66.2031   96.8558    9.3527 C.ar    1  UNL1        0.0588
     18 S          65.8292   96.1386   10.6161 S.2     1  UNL1       -0.0497
     19 N          61.9149   88.3220   11.9582 N.pl3   1  UNL1       -0.3319
     20 H          61.2071   88.2810   12.6412 H       1  UNL1        0.1468
     21 C          62.0192   87.2440   10.9205 C.3     1  UNL1        0.0870
     22 C          61.6374   85.8342   11.2625 C.3     1  UNL1        0.0213
     23 C          62.6936   84.7736   11.3595 C.3     1  UNL1        0.0067
     24 C          63.1829   84.0866   10.1191 C.3     1  UNL1        0.0322
     25 C          64.2391   83.0260   10.2162 C.3     1  UNL1        0.1422
     26 O          64.8061   82.6524   11.5537 O.3     1  UNL1       -0.3538
     27 C          64.3169   83.3394   12.7941 C.3     1  UNL1        0.1422
     28 C          63.2606   84.4000   12.6970 C.3     1  UNL1        0.0322
@<TRIPOS>BOND
     1     9    10    2
     2    10    11    2
     3    10    12    1
     4    12    14    1
     5    14    15   ar
     6    15    16   ar
     7    16    17   ar
     8    17    18   ar
     9    10     1    1
    10     1     2   ar
    11     2     3   ar
    12     3     4    1
    13     3     5   ar
    14     5    19    1
    15    19    21    1
    16    21    22    1
    17    22    23    1
    18    23    24    1
    19    24    25    1
    20    25    26    1
    21    26    27    1
    22    27    28    1
    23     5     6   ar
    24     6     7   ar
    25     7     8    1
    26    18    14   ar
    27     7     1   ar
    28    28    23    1
    29    12    13    1
    30    19    20    1
@<TRIPOS>MOLECULE
*****
 28 30 0 0 0
SMALL
GASTEIGER

@<TRIPOS>ATOM
      1 C          63.6923   86.2804   15.5044 C.ar    1  UNL1        0.1534
      2 C          63.9901   87.1094   14.2903 C.ar    1  UNL1        0.0351
      3 C          63.8924   88.6045   14.3607 C.ar    1  UNL1        0.0722
      4 CL         64.1902   89.4336   13.1465 Cl      1  UNL1       -0.0809
      5 C          63.4970   89.2706   15.6452 C.ar    1  UNL1        0.0577
      6 C          63.1992   88.4417   16.8593 C.ar    1  UNL1        0.0462
      7 C          63.2969   86.9465   16.7889 C.ar    1  UNL1        0.1602
      8 F          62.9991   86.1175   18.0030 F       1  UNL1       -0.2027
      9 O          62.3310   84.6744   15.7642 O.2     1  UNL1       -0.1498
     10 S          63.7899   84.7852   15.4340 S.O2    1  UNL1        0.0772
     11 O          65.2489   84.8959   15.1039 O.2     1  UNL1       -0.1498
     12 N          63.8875   83.2900   15.3637 N.pl3   1  UNL1       -0.1936
     13 H          64.2453   82.7836   16.1284 H       1  UNL1        0.1758
     14 C          63.4400   82.5665   14.1283 C.ar    1  UNL1        0.1786
     15 N          63.2118   81.0890   14.0057 N.ar    1  UNL1       -0.2214
     16 C          62.7729   80.8028   12.6002 C.ar    1  UNL1        0.1079
     17 C          62.7299   82.1034   11.8541 C.ar    1  UNL1        0.0588
     18 S          63.1422   83.1935   12.7985 S.2     1  UNL1       -0.0497
     19 N          63.3993   90.7659   15.7155 N.pl3   1  UNL1       -0.3319
     20 H          62.8418   91.2538   15.0672 H       1  UNL1        0.1468
     21 C          64.1511   91.5176   16.7736 C.3     1  UNL1        0.0870
     22 C          64.9677   92.7200   16.4024 C.3     1  UNL1        0.0213
     23 C          66.2023   92.5590   15.5660 C.3     1  UNL1        0.0067
     24 C          66.0828   92.2154   14.1108 C.3     1  UNL1        0.0322
     25 C          67.3175   92.0544   13.2743 C.3     1  UNL1        0.1422
     26 O          68.6717   92.2369   13.8931 O.3     1  UNL1       -0.3538
     27 C          68.7912   92.5805   15.3483 C.3     1  UNL1        0.1422
     28 C          67.5565   92.7415   16.1848 C.3     1  UNL1        0.0322
@<TRIPOS>BOND
     1     9    10    2
     2    10    11    2
     3    10    12    1
     4    12    14    1
     5    14    15   ar
     6    15    16   ar
     7    16    17   ar
     8    17    18   ar
     9    10     1    1
    10     1     2   ar
    11     2     3   ar
    12     3     4    1
    13     3     5   ar
    14     5    19    1
    15    19    21    1
    16    21    22    1
    17    22    23    1
    18    23    24    1
    19    24    25    1
    20    25    26    1
    21    26    27    1
    22    27    28    1
    23     5     6   ar
    24     6     7   ar
    25     7     8    1
    26    18    14   ar
    27     7     1   ar
    28    28    23    1
    29    12    13    1
    30    19    20    1
@<TRIPOS>MOLECULE
*****
 28 30 0 0 0
SMALL
GASTEIGER

@<TRIPOS>ATOM
      1 C          62.9859   85.8126   12.6510 C.ar    1  UNL1        0.1534
      2 C          62.0769   85.7129   11.4620 C.ar    1  UNL1        0.0351
      3 C          61.7251   86.9445   10.6816 C.ar    1  UNL1        0.0722
      4 CL         60.8161   86.8449    9.4925 Cl      1  UNL1       -0.0809
      5 C          62.2823   88.2760   11.0901 C.ar    1  UNL1        0.0577
      6 C          63.1913   88.3757   12.2791 C.ar    1  UNL1        0.0462
      7 C          63.5431   87.1440   13.0595 C.ar    1  UNL1        0.1602
      8 F          64.4522   87.2437   14.2486 F       1  UNL1       -0.2027
      9 O          64.2109   84.1158   12.3040 O.2     1  UNL1       -0.1498
     10 S          63.3378   84.5809   13.4315 S.O2    1  UNL1        0.0772
     11 O          62.4647   85.0459   14.5591 O.2     1  UNL1       -0.1498
     12 N          63.6897   83.3492   14.2119 N.pl3   1  UNL1       -0.1936
     13 H          64.4385   83.3684   14.8508 H       1  UNL1        0.1758
     14 C          62.9006   82.0881   14.0190 C.ar    1  UNL1        0.1786
     15 N          61.4854   81.8575   14.4595 N.ar    1  UNL1       -0.2214
     16 C          61.0984   80.4631   14.0645 C.ar    1  UNL1        0.1079
     17 C          62.2745   79.8320   13.3799 C.ar    1  UNL1        0.0588
     18 S          63.3883   80.8363   13.3518 S.2     1  UNL1       -0.0497
     19 N          61.9304   89.5077   10.3096 N.pl3   1  UNL1       -0.3319
     20 H          61.4377   89.4286    9.4609 H       1  UNL1        0.1468
     21 C          62.3293   90.8598   10.8221 C.3     1  UNL1        0.0870
     22 C          63.4655   91.5998   10.1805 C.3     1  UNL1        0.0213
     23 C          64.6037   92.1001   11.0197 C.3     1  UNL1        0.0067
     24 C          65.6745   92.9495   10.4016 C.3     1  UNL1        0.0322
     25 C          66.8126   93.4497   11.2408 C.3     1  UNL1        0.1422
     26 O          66.8801   93.1006   12.6981 O.3     1  UNL1       -0.3538
     27 C          65.8094   92.2512   13.3161 C.3     1  UNL1        0.1422
     28 C          64.6711   91.7509   12.4769 C.3     1  UNL1        0.0322
@<TRIPOS>BOND
     1     9    10    2
     2    10    11    2
     3    10    12    1
     4    12    14    1
     5    14    15   ar
     6    15    16   ar
     7    16    17   ar
     8    17    18   ar
     9    10     1    1
    10     1     2   ar
    11     2     3   ar
    12     3     4    1
    13     3     5   ar
    14     5    19    1
    15    19    21    1
    16    21    22    1
    17    22    23    1
    18    23    24    1
    19    24    25    1
    20    25    26    1
    21    26    27    1
    22    27    28    1
    23     5     6   ar
    24     6     7   ar
    25     7     8    1
    26    18    14   ar
    27     7     1   ar
    28    28    23    1
    29    12    13    1
    30    19    20    1
@<TRIPOS>MOLECULE
*****
 28 30 0 0 0
SMALL
GASTEIGER

@<TRIPOS>ATOM
      1 C          62.6199   89.7510   12.0016 C.ar    1  UNL1        0.1534
      2 C          63.1338   89.7018   13.4099 C.ar    1  UNL1        0.0351
      3 C          64.2145   90.6455   13.8473 C.ar    1  UNL1        0.0722
      4 CL         64.7284   90.5964   15.2557 Cl      1  UNL1       -0.0809
      5 C          64.7813   91.6385   12.8763 C.ar    1  UNL1        0.0577
      6 C          64.2674   91.6877   11.4680 C.ar    1  UNL1        0.0462
      7 C          63.1867   90.7440   11.0306 C.ar    1  UNL1        0.1602
      8 F          62.6728   90.7932    9.6222 F       1  UNL1       -0.2027
      9 O          62.5655   87.9421   10.8949 O.2     1  UNL1       -0.1498
     10 S          61.5391   88.8073   11.5641 S.O2    1  UNL1        0.0772
     11 O          60.5127   89.6724   12.2334 O.2     1  UNL1       -0.1498
     12 N          60.4584   87.8635   11.1267 N.pl3   1  UNL1       -0.1936
     13 H          59.9957   87.3032   11.7908 H       1  UNL1        0.1758
     14 C          60.0827   87.7735    9.6772 C.ar    1  UNL1        0.1786
     15 N          59.6314   88.9119    8.8110 N.ar    1  UNL1       -0.2214
     16 C          59.3622   88.3712    7.4380 C.ar    1  UNL1        0.1079
     17 C          59.6471   86.8986    7.4556 C.ar    1  UNL1        0.0588
     18 S          60.0924   86.5291    8.8396 S.2     1  UNL1       -0.0497
     19 N          65.8621   92.5823   13.3138 N.pl3   1  UNL1       -0.3319
     20 H          66.0750   92.6775   14.2703 H       1  UNL1        0.1468
     21 C          66.6185   93.3809   12.2940 C.3     1  UNL1        0.0870
     22 C          66.1813   94.7762   11.9592 C.3     1  UNL1        0.0213
     23 C          66.2766   95.2737   10.5473 C.3     1  UNL1        0.0067
     24 C          67.2940   94.6888    9.6131 C.3     1  UNL1        0.0322
     25 C          67.3893   95.1862    8.2013 C.3     1  UNL1        0.1422
     26 O          66.4672   96.2686    7.7235 O.3     1  UNL1       -0.3538
     27 C          65.4497   96.8535    8.6577 C.3     1  UNL1        0.1422
     28 C          65.3545   96.3560   10.0697 C.3     1  UNL1        0.0322
@<TRIPOS>BOND
     1     9    10    2
     2    10    11    2
     3    10    12    1
     4    12    14    1
     5    14    15   ar
     6    15    16   ar
     7    16    17   ar
     8    17    18   ar
     9    10     1    1
    10     1     2   ar
    11     2     3   ar
    12     3     4    1
    13     3     5   ar
    14     5    19    1
    15    19    21    1
    16    21    22    1
    17    22    23    1
    18    23    24    1
    19    24    25    1
    20    25    26    1
    21    26    27    1
    22    27    28    1
    23     5     6   ar
    24     6     7   ar
    25     7     8    1
    26    18    14   ar
    27     7     1   ar
    28    28    23    1
    29    12    13    1
    30    19    20    1
@<TRIPOS>MOLECULE
*****
 28 30 0 0 0
SMALL
GASTEIGER

@<TRIPOS>ATOM
      1 C          63.4592   85.0555   15.3730 C.ar    1  UNL1        0.1534
      2 C          63.0257   85.3885   16.7698 C.ar    1  UNL1        0.0351
      3 C          63.0122   86.8159   17.2306 C.ar    1  UNL1        0.0722
      4 CL         62.5787   87.1490   18.6275 Cl      1  UNL1       -0.0809
      5 C          63.4321   87.9102   16.2946 C.ar    1  UNL1        0.0577
      6 C          63.8656   87.5772   14.8978 C.ar    1  UNL1        0.0462
      7 C          63.8791   86.1498   14.4370 C.ar    1  UNL1        0.1602
      8 F          64.3126   85.8167   13.0401 F       1  UNL1       -0.2027
      9 O          61.9891   83.6829   14.6988 O.2     1  UNL1       -0.1498
     10 S          63.4728   83.6281   14.9121 S.O2    1  UNL1        0.0772
     11 O          64.9564   83.5732   15.1255 O.2     1  UNL1       -0.1498
     12 N          63.4863   82.2007   14.4513 N.pl3   1  UNL1       -0.1936
     13 H          63.5112   81.4706   15.1112 H       1  UNL1        0.1758
     14 C          63.4618   81.8857   12.9849 C.ar    1  UNL1        0.1786
     15 N          62.7946   80.7028   12.3482 N.ar    1  UNL1       -0.2214
     16 C          63.0208   80.7844   10.8676 C.ar    1  UNL1        0.1079
     17 C          63.8278   82.0179   10.5892 C.ar    1  UNL1        0.0588
     18 S          64.1004   82.6986   11.8979 S.2     1  UNL1       -0.0497
     19 N          63.4185   89.3377   16.7555 N.pl3   1  UNL1       -0.3319
     20 H          63.2452   89.5479   17.7015 H       1  UNL1        0.1468
     21 C          63.6691   90.4448   15.7750 C.3     1  UNL1        0.0870
     22 C          64.4422   91.6592   16.1964 C.3     1  UNL1        0.0213
     23 C          65.7108   92.0251   15.4846 C.3     1  UNL1        0.0067
     24 C          66.8019   92.7459   16.2192 C.3     1  UNL1        0.0322
     25 C          68.0705   93.1118   15.5074 C.3     1  UNL1        0.1422
     26 O          68.2480   92.7568   14.0608 O.3     1  UNL1       -0.3538
     27 C          67.1569   92.0360   13.3261 C.3     1  UNL1        0.1422
     28 C          65.8882   91.6701   14.0380 C.3     1  UNL1        0.0322
@<TRIPOS>BOND
     1     9    10    2
     2    10    11    2
     3    10    12    1
     4    12    14    1
     5    14    15   ar
     6    15    16   ar
     7    16    17   ar
     8    17    18   ar
     9    10     1    1
    10     1     2   ar
    11     2     3   ar
    12     3     4    1
    13     3     5   ar
    14     5    19    1
    15    19    21    1
    16    21    22    1
    17    22    23    1
    18    23    24    1
    19    24    25    1
    20    25    26    1
    21    26    27    1
    22    27    28    1
    23     5     6   ar
    24     6     7   ar
    25     7     8    1
    26    18    14   ar
    27     7     1   ar
    28    28    23    1
    29    12    13    1
    30    19    20    1
@<TRIPOS>MOLECULE
*****
 28 30 0 0 0
SMALL
GASTEIGER

@<TRIPOS>ATOM
      1 C          63.5894   85.9715   13.6230 C.ar    1  UNL1        0.1534
      2 C          64.1649   87.1678   14.3213 C.ar    1  UNL1        0.0351
      3 C          64.0246   88.5313   13.7120 C.ar    1  UNL1        0.0722
      4 CL         64.6001   89.7277   14.4103 Cl      1  UNL1       -0.0809
      5 C          63.3089   88.6984   12.4044 C.ar    1  UNL1        0.0577
      6 C          62.7335   87.5022   11.7061 C.ar    1  UNL1        0.0462
      7 C          62.8737   86.1387   12.3154 C.ar    1  UNL1        0.1602
      8 F          62.2982   84.9423   11.6171 F       1  UNL1       -0.2027
      9 O          62.6304   84.9280   15.2013 O.2     1  UNL1       -0.1498
     10 S          63.7297   84.6080   14.2323 S.O2    1  UNL1        0.0772
     11 O          64.8289   84.2880   13.2632 O.2     1  UNL1       -0.1498
     12 N          63.8699   83.2445   14.8416 N.pl3   1  UNL1       -0.1936
     13 H          64.4135   83.1215   15.6531 H       1  UNL1        0.1758
     14 C          63.1818   82.0684   14.2144 C.ar    1  UNL1        0.1786
     15 N          63.8029   81.0863   13.2659 N.ar    1  UNL1       -0.2214
     16 C          62.7567   80.0788   12.8909 C.ar    1  UNL1        0.1079
     17 C          61.4890   80.4383   13.6077 C.ar    1  UNL1        0.0588
     18 S          61.7517   81.6680   14.4257 S.2     1  UNL1       -0.0497
     19 N          63.1687   90.0620   11.7951 N.pl3   1  UNL1       -0.3319
     20 H          63.5475   90.8470   12.2528 H       1  UNL1        0.1468
     21 C          62.4513   90.2295   10.4886 C.3     1  UNL1        0.0870
     22 C          60.9590   90.0885   10.4288 C.3     1  UNL1        0.0213
     23 C          60.3318   89.1771    9.4160 C.3     1  UNL1        0.0067
     24 C          59.9451   89.7076    8.0673 C.3     1  UNL1        0.0322
     25 C          59.3178   88.7963    7.0544 C.3     1  UNL1        0.1422
     26 O          59.0772   87.3542    7.3903 O.3     1  UNL1       -0.3538
     27 C          59.4638   86.8237    8.7390 C.3     1  UNL1        0.1422
     28 C          60.0911   87.7352    9.7519 C.3     1  UNL1        0.0322
@<TRIPOS>BOND
     1     9    10    2
     2    10    11    2
     3    10    12    1
     4    12    14    1
     5    14    15   ar
     6    15    16   ar
     7    16    17   ar
     8    17    18   ar
     9    10     1    1
    10     1     2   ar
    11     2     3   ar
    12     3     4    1
    13     3     5   ar
    14     5    19    1
    15    19    21    1
    16    21    22    1
    17    22    23    1
    18    23    24    1
    19    24    25    1
    20    25    26    1
    21    26    27    1
    22    27    28    1
    23     5     6   ar
    24     6     7   ar
    25     7     8    1
    26    18    14   ar
    27     7     1   ar
    28    28    23    1
    29    12    13    1
    30    19    20    1
@<TRIPOS>MOLECULE
*****
 28 30 0 0 0
SMALL
GASTEIGER

@<TRIPOS>ATOM
      1 C          60.2940   87.3762    8.6883 C.ar    1  UNL1        0.1534
      2 C          61.2794   86.4295    8.0697 C.ar    1  UNL1        0.0351
      3 C          62.2068   85.6365    8.9420 C.ar    1  UNL1        0.0722
      4 CL         63.1923   84.6898    8.3234 Cl      1  UNL1       -0.0809
      5 C          62.1489   85.7902   10.4330 C.ar    1  UNL1        0.0577
      6 C          61.1635   86.7369   11.0516 C.ar    1  UNL1        0.0462
      7 C          60.2361   87.5299   10.1793 C.ar    1  UNL1        0.1602
      8 F          59.2506   88.4766   10.7979 F       1  UNL1       -0.2027
      9 O          58.6486   86.9089    7.4337 O.2     1  UNL1       -0.1498
     10 S          59.3665   88.1692    7.8160 S.O2    1  UNL1        0.0772
     11 O          60.0845   89.4295    8.1982 O.2     1  UNL1       -0.1498
     12 N          58.4390   88.9622    6.9436 N.pl3   1  UNL1       -0.1936
     13 H          57.4704   88.7882    6.9690 H       1  UNL1        0.1758
     14 C          58.9874   90.0202    6.0326 C.ar    1  UNL1        0.1786
     15 N          60.4083   90.1311    5.5650 N.ar    1  UNL1       -0.2214
     16 C          60.5102   91.3325    4.6727 C.ar    1  UNL1        0.1079
     17 C          59.1523   91.9642    4.5889 C.ar    1  UNL1        0.0588
     18 S          58.2111   91.1531    5.4295 S.2     1  UNL1       -0.0497
     19 N          63.0764   84.9972   11.3053 N.pl3   1  UNL1       -0.3319
     20 H          63.5570   84.2216   10.9357 H       1  UNL1        0.1468
     21 C          63.2716   85.3859   12.7408 C.3     1  UNL1        0.0870
     22 C          63.4978   84.3282   13.7802 C.3     1  UNL1        0.0213
     23 C          62.9880   82.9354   13.5562 C.3     1  UNL1        0.0067
     24 C          63.5723   82.0895   12.4641 C.3     1  UNL1        0.0322
     25 C          63.0626   80.6967   12.2401 C.3     1  UNL1        0.1422
     26 O          61.9684   80.1498   13.1083 O.3     1  UNL1       -0.3538
     27 C          61.3840   80.9958   14.2005 C.3     1  UNL1        0.1422
     28 C          61.8939   82.3886   14.4245 C.3     1  UNL1        0.0322
@<TRIPOS>BOND
     1     9    10    2
     2    10    11    2
     3    10    12    1
     4    12    14    1
     5    14    15   ar
     6    15    16   ar
     7    16    17   ar
     8    17    18   ar
     9    10     1    1
    10     1     2   ar
    11     2     3   ar
    12     3     4    1
    13     3     5   ar
    14     5    19    1
    15    19    21    1
    16    21    22    1
    17    22    23    1
    18    23    24    1
    19    24    25    1
    20    25    26    1
    21    26    27    1
    22    27    28    1
    23     5     6   ar
    24     6     7   ar
    25     7     8    1
    26    18    14   ar
    27     7     1   ar
    28    28    23    1
    29    12    13    1
    30    19    20    1
