@<TRIPOS>MOLECULE
*****
 36 39 0 0 0
SMALL
GASTEIGER

@<TRIPOS>ATOM
      1 C          59.0476   95.0835   -0.1604 C.ar    1  UNL1       -0.0044
      2 C          59.7919   95.6304    1.0215 C.ar    1  UNL1       -0.0014
      3 C          60.1318   94.7333    2.1745 C.ar    1  UNL1        0.0144
      4 C          59.7274   93.2891    2.1457 C.ar    1  UNL1        0.0516
      5 C          58.9831   92.7421    0.9638 C.ar    1  UNL1        0.0144
      6 C          58.6432   93.6392   -0.1892 C.ar    1  UNL1       -0.0014
      7 N          60.0673   92.3919    3.2988 N.am    1  UNL1       -0.2681
      8 C          58.9751   91.8333    4.1617 C.2     1  UNL1        0.3077
      9 O          57.5429   92.1717    3.8716 O.2     1  UNL1       -0.2522
     10 N          59.3150   90.9361    5.3148 N.am    1  UNL1       -0.2632
     11 C          58.5246   90.2118    6.3640 C.3     1  UNL1        0.1010
     12 C          59.7956   89.6673    6.9455 C.3     1  UNL1        0.0636
     13 C          60.5860   90.3916    5.8963 C.3     1  UNL1        0.1010
     14 H          61.0074   92.1698    3.4892 H       1  UNL1        0.1564
     15 C          60.1356   88.7701    8.0985 C.ar    1  UNL1        0.0001
     16 C          60.0766   87.2805    7.9326 C.ar    1  UNL1        0.0002
     17 C          60.4165   86.3834    9.0856 C.ar    1  UNL1        0.0336
     18 C          60.8154   86.9758   10.4046 C.ar    1  UNL1        0.1254
     19 N          61.1553   86.0786   11.5577 N.pl3   1  UNL1       -0.3426
     20 N          60.8743   88.4654   10.5706 N.ar    1  UNL1       -0.2299
     21 C          60.5344   89.3626    9.4176 C.ar    1  UNL1        0.0961
     22 H          61.1166   85.1009   11.4488 H       1  UNL1        0.1437
     23 H          61.4170   86.4675   12.4235 H       1  UNL1        0.1437
     24 C          59.8029   96.5965   -2.1327 C.3     1  UNL1        0.0262
     25 C          58.7077   95.9806   -1.3135 C.3     1  UNL1        0.0944
     26 N          57.2726   96.2619   -1.6472 N.am    1  UNL1       -0.2987
     27 C          56.5443   95.3867   -2.6238 C.2     1  UNL1        0.2461
     28 O          57.2511   94.2303   -3.2666 O.2     1  UNL1       -0.2701
     29 H          56.8087   97.0208   -1.2253 H       1  UNL1        0.1500
     30 C          55.1091   95.6680   -2.9576 C.ar    1  UNL1        0.0556
     31 C          54.0783   95.7005   -1.8684 C.ar    1  UNL1        0.0047
     32 C          52.6432   95.9817   -2.2022 C.ar    1  UNL1        0.0025
     33 C          52.2390   96.2304   -3.6252 C.ar    1  UNL1        0.0296
     34 C          53.2699   96.1979   -4.7143 C.ar    1  UNL1        0.1403
     35 F          52.8657   96.4467   -6.1372 F       1  UNL1       -0.2042
     36 C          54.7049   95.9167   -4.3805 C.ar    1  UNL1        0.0341
@<TRIPOS>BOND
     1    25    24    1
     2    25    26    1
     3    26    27   am
     4    27    28    2
     5    27    30    1
     6    30    31   ar
     7    31    32   ar
     8    32    33   ar
     9    33    34   ar
    10    34    35    1
    11    34    36   ar
    12    25     1    1
    13     1     2   ar
    14     2     3   ar
    15     3     4   ar
    16     4     7    1
    17     7     8   am
    18     8     9    2
    19     8    10   am
    20    10    11    1
    21    11    12    1
    22    12    15    1
    23    15    16   ar
    24    16    17   ar
    25    17    18   ar
    26    18    19    1
    27    18    20   ar
    28    20    21   ar
    29    12    13    1
    30     4     5   ar
    31     5     6   ar
    32    36    30   ar
    33     6     1   ar
    34    13    10    1
    35    21    15   ar
    36    26    29    1
    37     7    14    1
    38    19    22    1
    39    19    23    1
@<TRIPOS>MOLECULE
*****
 36 39 0 0 0
SMALL
GASTEIGER

@<TRIPOS>ATOM
      1 C          60.0060   88.3559    9.2153 C.ar    1  UNL1       -0.0044
      2 C          60.4527   89.7842    9.1144 C.ar    1  UNL1       -0.0014
      3 C          60.2194   90.5555    7.8492 C.ar    1  UNL1        0.0144
      4 C          59.5394   89.8984    6.6848 C.ar    1  UNL1        0.0516
      5 C          59.0927   88.4699    6.7856 C.ar    1  UNL1        0.0144
      6 C          59.3260   87.6987    8.0508 C.ar    1  UNL1       -0.0014
      7 N          59.3062   90.6696    5.4196 N.am    1  UNL1       -0.2681
      8 C          60.4681   91.2548    4.6729 C.2     1  UNL1        0.3077
      9 O          61.8632   91.0686    5.1914 O.2     1  UNL1       -0.2522
     10 N          60.2348   92.0260    3.4077 N.am    1  UNL1       -0.2632
     11 C          61.1138   92.7343    2.4199 C.3     1  UNL1        0.1010
     12 C          59.9049   93.1167    1.6184 C.3     1  UNL1        0.0636
     13 C          59.0259   92.4085    2.6062 C.3     1  UNL1        0.1010
     14 H          58.3905   90.7918    5.0793 H       1  UNL1        0.1564
     15 C          59.6716   93.8880    0.3532 C.ar    1  UNL1        0.0001
     16 C          59.6354   93.1732   -0.9650 C.ar    1  UNL1        0.0002
     17 C          59.4021   93.9444   -2.2302 C.ar    1  UNL1        0.0336
     18 C          59.2051   95.4305   -2.1772 C.ar    1  UNL1        0.1254
     19 N          58.9718   96.2017   -3.4424 N.pl3   1  UNL1       -0.3426
     20 N          59.2413   96.1452   -0.8590 N.ar    1  UNL1       -0.2299
     21 C          59.4746   95.3740    0.4062 C.ar    1  UNL1        0.0961
     22 H          58.9481   95.7326   -4.3076 H       1  UNL1        0.1437
     23 H          58.8425   97.1771   -3.4076 H       1  UNL1        0.1437
     24 C          59.8078   88.1570   11.7981 C.3     1  UNL1        0.0262
     25 C          60.2392   87.5846   10.4805 C.3     1  UNL1        0.0944
     26 N          60.9040   86.2410   10.4280 N.am    1  UNL1       -0.2987
     27 C          62.1317   85.9790   11.2490 C.2     1  UNL1        0.2461
     28 O          62.6947   87.0607   12.1225 O.2     1  UNL1       -0.2701
     29 H          60.5345   85.5310    9.8547 H       1  UNL1        0.1500
     30 C          62.7965   84.6354   11.1965 C.ar    1  UNL1        0.0556
     31 C          63.5177   84.2034    9.9543 C.ar    1  UNL1        0.0047
     32 C          64.1825   82.8598    9.9018 C.ar    1  UNL1        0.0025
     33 C          64.1260   81.9482   11.0917 C.ar    1  UNL1        0.0296
     34 C          63.4049   82.3801   12.3339 C.ar    1  UNL1        0.1403
     35 F          63.3484   81.4685   13.5238 F       1  UNL1       -0.2042
     36 C          62.7401   83.7237   12.3864 C.ar    1  UNL1        0.0341
@<TRIPOS>BOND
     1    25    24    1
     2    25    26    1
     3    26    27   am
     4    27    28    2
     5    27    30    1
     6    30    31   ar
     7    31    32   ar
     8    32    33   ar
     9    33    34   ar
    10    34    35    1
    11    34    36   ar
    12    25     1    1
    13     1     2   ar
    14     2     3   ar
    15     3     4   ar
    16     4     7    1
    17     7     8   am
    18     8     9    2
    19     8    10   am
    20    10    11    1
    21    11    12    1
    22    12    15    1
    23    15    16   ar
    24    16    17   ar
    25    17    18   ar
    26    18    19    1
    27    18    20   ar
    28    20    21   ar
    29    12    13    1
    30     4     5   ar
    31     5     6   ar
    32    36    30   ar
    33     6     1   ar
    34    13    10    1
    35    21    15   ar
    36    26    29    1
    37     7    14    1
    38    19    22    1
    39    19    23    1
@<TRIPOS>MOLECULE
*****
 36 39 0 0 0
SMALL
GASTEIGER

@<TRIPOS>ATOM
      1 C          73.5551   75.0129   15.7334 C.ar    1  UNL1       -0.0044
      2 C          73.5288   74.1996   14.4734 C.ar    1  UNL1       -0.0014
      3 C          73.5546   74.8835   13.1386 C.ar    1  UNL1        0.0144
      4 C          73.6066   76.3807   13.0639 C.ar    1  UNL1        0.0516
      5 C          73.6329   77.1941   14.3240 C.ar    1  UNL1        0.0144
      6 C          73.6071   76.5102   15.6587 C.ar    1  UNL1       -0.0014
      7 N          73.6323   77.0646   11.7291 N.am    1  UNL1       -0.2681
      8 C          72.8303   78.3132   11.5105 C.2     1  UNL1        0.3077
      9 O          72.0027   78.8779   12.6268 O.2     1  UNL1       -0.2522
     10 N          72.8561   78.9971   10.1757 N.am    1  UNL1       -0.2632
     11 C          72.2089   80.2210    9.5984 C.3     1  UNL1        0.1010
     12 C          72.8924   79.9642    8.2881 C.3     1  UNL1        0.0636
     13 C          73.5396   78.7403    8.8654 C.3     1  UNL1        0.1010
     14 H          74.1755   76.6939   10.9965 H       1  UNL1        0.1564
     15 C          72.9182   80.6481    6.9533 C.ar    1  UNL1        0.0001
     16 C          73.5931   79.9902    5.7864 C.ar    1  UNL1        0.0002
     17 C          73.6188   80.6741    4.4517 C.ar    1  UNL1        0.0336
     18 C          72.9696   82.0158    4.2838 C.ar    1  UNL1        0.1254
     19 N          72.9953   82.6997    2.9490 N.pl3   1  UNL1       -0.3426
     20 N          72.2947   82.6737    5.4506 N.ar    1  UNL1       -0.2299
     21 C          72.2689   81.9898    6.7854 C.ar    1  UNL1        0.0961
     22 H          73.4383   82.2679    2.1831 H       1  UNL1        0.1437
     23 H          72.5692   83.5804    2.8388 H       1  UNL1        0.1437
     24 C          73.6276   75.1381   18.3275 C.3     1  UNL1        0.0262
     25 C          73.5294   74.3290   17.0682 C.3     1  UNL1        0.0944
     26 N          73.4055   72.8360   17.1437 N.am    1  UNL1       -0.2987
     27 C          72.0505   72.1934   17.1138 C.2     1  UNL1        0.2461
     28 O          70.8193   73.0437   17.0084 O.2     1  UNL1       -0.2701
     29 H          74.2136   72.2779   17.2129 H       1  UNL1        0.1500
     30 C          71.9266   70.7004   17.1893 C.ar    1  UNL1        0.0556
     31 C          72.7947   69.8313   16.3284 C.ar    1  UNL1        0.0047
     32 C          72.6708   68.3384   16.4039 C.ar    1  UNL1        0.0025
     33 C          71.6788   67.7145   17.3403 C.ar    1  UNL1        0.0296
     34 C          70.8108   68.5836   18.2012 C.ar    1  UNL1        0.1403
     35 F          69.8189   67.9597   19.1376 F       1  UNL1       -0.2042
     36 C          70.9347   70.0765   18.1257 C.ar    1  UNL1        0.0341
@<TRIPOS>BOND
     1    25    24    1
     2    25    26    1
     3    26    27   am
     4    27    28    2
     5    27    30    1
     6    30    31   ar
     7    31    32   ar
     8    32    33   ar
     9    33    34   ar
    10    34    35    1
    11    34    36   ar
    12    25     1    1
    13     1     2   ar
    14     2     3   ar
    15     3     4   ar
    16     4     7    1
    17     7     8   am
    18     8     9    2
    19     8    10   am
    20    10    11    1
    21    11    12    1
    22    12    15    1
    23    15    16   ar
    24    16    17   ar
    25    17    18   ar
    26    18    19    1
    27    18    20   ar
    28    20    21   ar
    29    12    13    1
    30     4     5   ar
    31     5     6   ar
    32    36    30   ar
    33     6     1   ar
    34    13    10    1
    35    21    15   ar
    36    26    29    1
    37     7    14    1
    38    19    22    1
    39    19    23    1
@<TRIPOS>MOLECULE
*****
 36 39 0 0 0
SMALL
GASTEIGER

@<TRIPOS>ATOM
      1 C          59.6193   94.7588   -0.5957 C.ar    1  UNL1       -0.0044
      2 C          60.6488   95.1880    0.4072 C.ar    1  UNL1       -0.0014
      3 C          60.9003   94.3535    1.6279 C.ar    1  UNL1        0.0144
      4 C          60.1223   93.0897    1.8459 C.ar    1  UNL1        0.0516
      5 C          59.0927   92.6605    0.8430 C.ar    1  UNL1        0.0144
      6 C          58.8412   93.4950   -0.3778 C.ar    1  UNL1       -0.0014
      7 N          60.3738   92.2552    3.0666 N.am    1  UNL1       -0.2681
      8 C          59.2284   91.8464    3.9447 C.2     1  UNL1        0.3077
      9 O          57.8316   92.2722    3.6020 O.2     1  UNL1       -0.2522
     10 N          59.4799   91.0119    5.1655 N.am    1  UNL1       -0.2632
     11 C          58.6199   90.4287    6.2473 C.3     1  UNL1        0.1010
     12 C          59.8356   89.8317    6.8919 C.3     1  UNL1        0.0636
     13 C          60.6957   90.4148    5.8102 C.3     1  UNL1        0.1010
     14 H          61.2906   91.9757    3.2916 H       1  UNL1        0.1564
     15 C          60.0871   88.9972    8.1127 C.ar    1  UNL1        0.0001
     16 C          59.7387   87.5382    8.1087 C.ar    1  UNL1        0.0002
     17 C          59.9902   86.7037    9.3294 C.ar    1  UNL1        0.0336
     18 C          60.5901   87.3281   10.5542 C.ar    1  UNL1        0.1254
     19 N          60.8416   86.4935   11.7750 N.pl3   1  UNL1       -0.3426
     20 N          60.9384   88.7870   10.5583 N.ar    1  UNL1       -0.2299
     21 C          60.6869   89.6216    9.3375 C.ar    1  UNL1        0.0961
     22 H          60.6129   85.5360   11.7724 H       1  UNL1        0.1437
     23 H          61.2353   86.9034   12.5789 H       1  UNL1        0.1437
     24 C          60.1562   96.8493   -2.0418 C.3     1  UNL1        0.0262
     25 C          59.3678   95.5933   -1.8165 C.3     1  UNL1        0.0944
     26 N          58.3278   95.1718   -2.8119 N.am    1  UNL1       -0.2987
     27 C          58.7173   94.3359   -3.9950 C.2     1  UNL1        0.2461
     28 O          60.1466   93.9215   -4.1826 O.2     1  UNL1       -0.2701
     29 H          57.3897   95.4438   -2.6888 H       1  UNL1        0.1500
     30 C          57.6773   93.9144   -4.9904 C.ar    1  UNL1        0.0556
     31 C          57.4029   94.7658   -6.1945 C.ar    1  UNL1        0.0047
     32 C          56.3630   94.3442   -7.1899 C.ar    1  UNL1        0.0025
     33 C          55.5975   93.0713   -6.9812 C.ar    1  UNL1        0.0296
     34 C          55.8719   92.2199   -5.7771 C.ar    1  UNL1        0.1403
     35 F          55.1063   90.9469   -5.5685 F       1  UNL1       -0.2042
     36 C          56.9118   92.6414   -4.7818 C.ar    1  UNL1        0.0341
@<TRIPOS>BOND
     1    25    24    1
     2    25    26    1
     3    26    27   am
     4    27    28    2
     5    27    30    1
     6    30    31   ar
     7    31    32   ar
     8    32    33   ar
     9    33    34   ar
    10    34    35    1
    11    34    36   ar
    12    25     1    1
    13     1     2   ar
    14     2     3   ar
    15     3     4   ar
    16     4     7    1
    17     7     8   am
    18     8     9    2
    19     8    10   am
    20    10    11    1
    21    11    12    1
    22    12    15    1
    23    15    16   ar
    24    16    17   ar
    25    17    18   ar
    26    18    19    1
    27    18    20   ar
    28    20    21   ar
    29    12    13    1
    30     4     5   ar
    31     5     6   ar
    32    36    30   ar
    33     6     1   ar
    34    13    10    1
    35    21    15   ar
    36    26    29    1
    37     7    14    1
    38    19    22    1
    39    19    23    1
@<TRIPOS>MOLECULE
*****
 36 39 0 0 0
SMALL
GASTEIGER

@<TRIPOS>ATOM
      1 C          59.9701   88.3656    9.4764 C.ar    1  UNL1       -0.0044
      2 C          59.3246   87.6569    8.3227 C.ar    1  UNL1       -0.0014
      3 C          59.0999   88.3810    7.0284 C.ar    1  UNL1        0.0144
      4 C          59.5208   89.8138    6.8878 C.ar    1  UNL1        0.0516
      5 C          60.1664   90.5226    8.0415 C.ar    1  UNL1        0.0144
      6 C          60.3910   89.7985    9.3358 C.ar    1  UNL1       -0.0014
      7 N          59.2962   90.5379    5.5935 N.am    1  UNL1       -0.2681
      8 C          60.4502   91.1827    4.8847 C.2     1  UNL1        0.3077
      9 O          61.8289   91.1034    5.4703 O.2     1  UNL1       -0.2522
     10 N          60.2255   91.9068    3.5904 N.am    1  UNL1       -0.2632
     11 C          61.1007   92.6497    2.6249 C.3     1  UNL1        0.1010
     12 C          59.9078   92.9308    1.7600 C.3     1  UNL1        0.0636
     13 C          59.0326   92.1879    2.7255 C.3     1  UNL1        0.1010
     14 H          58.3913   90.5899    5.2092 H       1  UNL1        0.1564
     15 C          59.6832   93.6549    0.4657 C.ar    1  UNL1        0.0001
     16 C          59.4504   95.1367    0.4659 C.ar    1  UNL1        0.0002
     17 C          59.2258   95.8608   -0.8284 C.ar    1  UNL1        0.0336
     18 C          59.2339   95.1031   -2.1229 C.ar    1  UNL1        0.1254
     19 N          59.0093   95.8272   -3.4172 N.pl3   1  UNL1       -0.3426
     20 N          59.4667   93.6213   -2.1231 N.ar    1  UNL1       -0.2299
     21 C          59.6913   92.8972   -0.8288 C.ar    1  UNL1        0.0961
     22 H          58.8565   96.7997   -3.4170 H       1  UNL1        0.1437
     23 H          59.0146   95.3298   -4.2668 H       1  UNL1        0.1437
     24 C          59.7684   88.2687   12.0648 C.3     1  UNL1        0.0262
     25 C          60.1947   87.6415   10.7707 C.3     1  UNL1        0.0944
     26 N          60.8457   86.2901   10.7708 N.am    1  UNL1       -0.2987
     27 C          62.1126   86.0680   11.5426 C.2     1  UNL1        0.2461
     28 O          62.7286   87.1972   12.3142 O.2     1  UNL1       -0.2701
     29 H          60.4415   85.5489   10.2644 H       1  UNL1        0.1500
     30 C          62.7637   84.7165   11.5427 C.ar    1  UNL1        0.0556
     31 C          62.6860   83.8468   12.7623 C.ar    1  UNL1        0.0047
     32 C          63.3370   82.4955   12.7624 C.ar    1  UNL1        0.0025
     33 C          64.0657   82.0139   11.5429 C.ar    1  UNL1        0.0296
     34 C          64.1433   82.8836   10.3233 C.ar    1  UNL1        0.1403
     35 F          64.8719   82.4020    9.1038 F       1  UNL1       -0.2042
     36 C          63.4923   84.2350   10.3232 C.ar    1  UNL1        0.0341
@<TRIPOS>BOND
     1    25    24    1
     2    25    26    1
     3    26    27   am
     4    27    28    2
     5    27    30    1
     6    30    31   ar
     7    31    32   ar
     8    32    33   ar
     9    33    34   ar
    10    34    35    1
    11    34    36   ar
    12    25     1    1
    13     1     2   ar
    14     2     3   ar
    15     3     4   ar
    16     4     7    1
    17     7     8   am
    18     8     9    2
    19     8    10   am
    20    10    11    1
    21    11    12    1
    22    12    15    1
    23    15    16   ar
    24    16    17   ar
    25    17    18   ar
    26    18    19    1
    27    18    20   ar
    28    20    21   ar
    29    12    13    1
    30     4     5   ar
    31     5     6   ar
    32    36    30   ar
    33     6     1   ar
    34    13    10    1
    35    21    15   ar
    36    26    29    1
    37     7    14    1
    38    19    22    1
    39    19    23    1
@<TRIPOS>MOLECULE
*****
 36 39 0 0 0
SMALL
GASTEIGER

@<TRIPOS>ATOM
      1 C          64.4976   90.7812   14.1707 C.ar    1  UNL1       -0.0044
      2 C          63.8447   90.5757   12.8360 C.ar    1  UNL1       -0.0014
      3 C          63.5249   89.1886   12.3631 C.ar    1  UNL1        0.0144
      4 C          63.8581   88.0070   13.2249 C.ar    1  UNL1        0.0516
      5 C          64.5111   88.2124   14.5596 C.ar    1  UNL1        0.0144
      6 C          64.8308   89.5995   15.0326 C.ar    1  UNL1       -0.0014
      7 N          63.5383   86.6198   12.7520 N.am    1  UNL1       -0.2681
      8 C          64.1976   85.4369   13.3970 C.2     1  UNL1        0.3077
      9 O          65.1766   85.6412   14.5149 O.2     1  UNL1       -0.2522
     10 N          63.8779   84.0498   12.9241 N.am    1  UNL1       -0.2632
     11 C          64.3206   82.6694   13.3094 C.3     1  UNL1        0.1010
     12 C          63.4257   82.0882   12.2553 C.3     1  UNL1        0.0636
     13 C          62.9829   83.4685   11.8699 C.3     1  UNL1        0.1010
     14 H          62.8958   86.4858   12.0182 H       1  UNL1        0.1564
     15 C          63.1059   80.7010   11.7823 C.ar    1  UNL1        0.0001
     16 C          63.1748   80.3725   10.3204 C.ar    1  UNL1        0.0002
     17 C          62.8551   78.9854    9.8475 C.ar    1  UNL1        0.0336
     18 C          62.4664   77.9268   10.8365 C.ar    1  UNL1        0.1254
     19 N          62.1467   76.5397   10.3636 N.pl3   1  UNL1       -0.3426
     20 N          62.3975   78.2553   12.2984 N.ar    1  UNL1       -0.2299
     21 C          62.7173   79.6424   12.7714 C.ar    1  UNL1        0.0961
     22 H          62.1919   76.3241    9.4041 H       1  UNL1        0.1437
     23 H          61.8916   75.8448   11.0127 H       1  UNL1        0.1437
     24 C          64.9028   92.4588   16.1127 C.3     1  UNL1        0.0262
     25 C          64.8173   92.1683   14.6436 C.3     1  UNL1        0.0944
     26 N          65.0516   93.2650   13.6474 N.am    1  UNL1       -0.2987
     27 C          66.2356   93.2032   12.7285 C.2     1  UNL1        0.2461
     28 O          67.1854   92.0448   12.8059 O.2     1  UNL1       -0.2701
     29 H          64.4283   94.0254   13.5966 H       1  UNL1        0.1500
     30 C          66.4699   94.2999   11.7323 C.ar    1  UNL1        0.0556
     31 C          66.1945   95.7258   12.1078 C.ar    1  UNL1        0.0047
     32 C          66.4288   96.8224   11.1116 C.ar    1  UNL1        0.0025
     33 C          66.9385   96.4931    9.7398 C.ar    1  UNL1        0.0296
     34 C          67.2138   95.0673    9.3642 C.ar    1  UNL1        0.1403
     35 F          67.7235   94.7380    7.9924 F       1  UNL1       -0.2042
     36 C          66.9795   93.9707   10.3605 C.ar    1  UNL1        0.0341
@<TRIPOS>BOND
     1    25    24    1
     2    25    26    1
     3    26    27   am
     4    27    28    2
     5    27    30    1
     6    30    31   ar
     7    31    32   ar
     8    32    33   ar
     9    33    34   ar
    10    34    35    1
    11    34    36   ar
    12    25     1    1
    13     1     2   ar
    14     2     3   ar
    15     3     4   ar
    16     4     7    1
    17     7     8   am
    18     8     9    2
    19     8    10   am
    20    10    11    1
    21    11    12    1
    22    12    15    1
    23    15    16   ar
    24    16    17   ar
    25    17    18   ar
    26    18    19    1
    27    18    20   ar
    28    20    21   ar
    29    12    13    1
    30     4     5   ar
    31     5     6   ar
    32    36    30   ar
    33     6     1   ar
    34    13    10    1
    35    21    15   ar
    36    26    29    1
    37     7    14    1
    38    19    22    1
    39    19    23    1
@<TRIPOS>MOLECULE
*****
 36 39 0 0 0
SMALL
GASTEIGER

@<TRIPOS>ATOM
      1 C          60.9753   88.4107    9.3962 C.ar    1  UNL1       -0.0044
      2 C          60.1322   87.7088    8.3733 C.ar    1  UNL1       -0.0014
      3 C          59.6620   88.4465    7.1549 C.ar    1  UNL1        0.0144
      4 C          60.0349   89.8861    6.9593 C.ar    1  UNL1        0.0516
      5 C          60.8781   90.5881    7.9822 C.ar    1  UNL1        0.0144
      6 C          61.3483   89.8505    9.2007 C.ar    1  UNL1       -0.0014
      7 N          59.5647   90.6238    5.7408 N.am    1  UNL1       -0.2681
      8 C          60.5630   91.1897    4.7749 C.2     1  UNL1        0.3077
      9 O          62.0315   91.0180    5.0275 O.2     1  UNL1       -0.2522
     10 N          60.0928   91.9274    3.5564 N.am    1  UNL1       -0.2632
     11 C          60.7675   92.6100    2.4035 C.3     1  UNL1        0.1010
     12 C          59.4278   92.9707    1.8332 C.3     1  UNL1        0.0636
     13 C          58.7531   92.2881    2.9860 C.3     1  UNL1        0.1010
     14 H          58.6008   90.7365    5.5750 H       1  UNL1        0.1564
     15 C          58.9576   93.7083    0.6147 C.ar    1  UNL1        0.0001
     16 C          58.1670   92.9900   -0.4384 C.ar    1  UNL1        0.0002
     17 C          57.6968   93.7277   -1.6569 C.ar    1  UNL1        0.0336
     18 C          58.0172   95.1837   -1.8223 C.ar    1  UNL1        0.1254
     19 N          57.5470   95.9214   -3.0408 N.pl3   1  UNL1       -0.3426
     20 N          58.8077   95.9020   -0.7692 N.ar    1  UNL1       -0.2299
     21 C          59.2779   95.1643    0.4493 C.ar    1  UNL1        0.0961
     22 H          57.0281   95.4499   -3.7320 H       1  UNL1        0.1437
     23 H          57.7572   96.8770   -3.1493 H       1  UNL1        0.1437
     24 C          60.9009   86.3099   10.9229 C.3     1  UNL1        0.0262
     25 C          61.4455   87.6731   10.6147 C.3     1  UNL1        0.0944
     26 N          62.4605   88.2986   11.5251 N.am    1  UNL1       -0.2987
     27 C          62.0500   89.3902   12.4684 C.2     1  UNL1        0.2461
     28 O          60.6246   89.8562   12.5016 O.2     1  UNL1       -0.2701
     29 H          63.3960   87.9928   11.5033 H       1  UNL1        0.1500
     30 C          63.0650   90.0157   13.3788 C.ar    1  UNL1        0.0556
     31 C          62.9590   89.8262   14.8630 C.ar    1  UNL1        0.0047
     32 C          63.9739   90.4518   15.7732 C.ar    1  UNL1        0.0025
     33 C          65.0948   91.2668   15.1993 C.ar    1  UNL1        0.0296
     34 C          65.2007   91.4563   13.7151 C.ar    1  UNL1        0.1403
     35 F          66.3216   92.2714   13.1412 F       1  UNL1       -0.2042
     36 C          64.1858   90.8308   12.8048 C.ar    1  UNL1        0.0341
@<TRIPOS>BOND
     1    25    24    1
     2    25    26    1
     3    26    27   am
     4    27    28    2
     5    27    30    1
     6    30    31   ar
     7    31    32   ar
     8    32    33   ar
     9    33    34   ar
    10    34    35    1
    11    34    36   ar
    12    25     1    1
    13     1     2   ar
    14     2     3   ar
    15     3     4   ar
    16     4     7    1
    17     7     8   am
    18     8     9    2
    19     8    10   am
    20    10    11    1
    21    11    12    1
    22    12    15    1
    23    15    16   ar
    24    16    17   ar
    25    17    18   ar
    26    18    19    1
    27    18    20   ar
    28    20    21   ar
    29    12    13    1
    30     4     5   ar
    31     5     6   ar
    32    36    30   ar
    33     6     1   ar
    34    13    10    1
    35    21    15   ar
    36    26    29    1
    37     7    14    1
    38    19    22    1
    39    19    23    1
@<TRIPOS>MOLECULE
*****
 36 39 0 0 0
SMALL
GASTEIGER

@<TRIPOS>ATOM
      1 C          58.8798   90.9673    5.4529 C.ar    1  UNL1       -0.0044
      2 C          57.8981   90.0928    6.1750 C.ar    1  UNL1       -0.0014
      3 C          58.3873   88.9475    7.0110 C.ar    1  UNL1        0.0144
      4 C          59.8582   88.6767    7.1249 C.ar    1  UNL1        0.0516
      5 C          60.8400   89.5512    6.4028 C.ar    1  UNL1        0.0144
      6 C          60.3508   90.6966    5.5668 C.ar    1  UNL1       -0.0014
      7 N          60.3475   87.5314    7.9609 N.am    1  UNL1       -0.2681
      8 C          61.0676   87.7973    9.2495 C.2     1  UNL1        0.3077
      9 O          61.2984   89.2086    9.7022 O.2     1  UNL1       -0.2522
     10 N          61.5568   86.6520   10.0855 N.am    1  UNL1       -0.2632
     11 C          62.2910   86.5269   11.3876 C.3     1  UNL1        0.1010
     12 C          62.2487   85.0323   11.2678 C.3     1  UNL1        0.0636
     13 C          61.5146   85.1573    9.9657 C.3     1  UNL1        0.1010
     14 H          60.1960   86.6051    7.6637 H       1  UNL1        0.1564
     15 C          62.7380   83.8869   12.1037 C.ar    1  UNL1        0.0001
     16 C          62.7367   82.4954   11.5438 C.ar    1  UNL1        0.0002
     17 C          63.2259   81.3501   12.3797 C.ar    1  UNL1        0.0336
     18 C          63.7165   81.5963   13.7757 C.ar    1  UNL1        0.1254
     19 N          64.2057   80.4510   14.6117 N.pl3   1  UNL1       -0.3426
     20 N          63.7177   82.9878   14.3357 N.ar    1  UNL1       -0.2299
     21 C          63.2285   84.1331   13.4997 C.ar    1  UNL1        0.0961
     22 H          64.2049   79.5376   14.2441 H       1  UNL1        0.1437
     23 H          64.5276   80.6126   15.5279 H       1  UNL1        0.1437
     24 C          56.9355   92.2190    4.2685 C.3     1  UNL1        0.0262
     25 C          58.3905   92.1127    4.6169 C.3     1  UNL1        0.0944
     26 N          59.3564   93.1516    4.1294 N.am    1  UNL1       -0.2987
     27 C          59.7635   93.1786    2.6859 C.2     1  UNL1        0.2461
     28 O          59.2047   92.1667    1.7300 O.2     1  UNL1       -0.2701
     29 H          59.7232   93.8158    4.7567 H       1  UNL1        0.1500
     30 C          60.7294   94.2176    2.1984 C.ar    1  UNL1        0.0556
     31 C          60.2870   95.6434    2.0528 C.ar    1  UNL1        0.0047
     32 C          61.2528   96.6823    1.5652 C.ar    1  UNL1        0.0025
     33 C          62.6612   96.2954    1.2233 C.ar    1  UNL1        0.0296
     34 C          63.1036   94.8696    1.3689 C.ar    1  UNL1        0.1403
     35 F          64.5119   94.4826    1.0269 F       1  UNL1       -0.2042
     36 C          62.1377   93.8307    1.8564 C.ar    1  UNL1        0.0341
@<TRIPOS>BOND
     1    25    24    1
     2    25    26    1
     3    26    27   am
     4    27    28    2
     5    27    30    1
     6    30    31   ar
     7    31    32   ar
     8    32    33   ar
     9    33    34   ar
    10    34    35    1
    11    34    36   ar
    12    25     1    1
    13     1     2   ar
    14     2     3   ar
    15     3     4   ar
    16     4     7    1
    17     7     8   am
    18     8     9    2
    19     8    10   am
    20    10    11    1
    21    11    12    1
    22    12    15    1
    23    15    16   ar
    24    16    17   ar
    25    17    18   ar
    26    18    19    1
    27    18    20   ar
    28    20    21   ar
    29    12    13    1
    30     4     5   ar
    31     5     6   ar
    32    36    30   ar
    33     6     1   ar
    34    13    10    1
    35    21    15   ar
    36    26    29    1
    37     7    14    1
    38    19    22    1
    39    19    23    1
