@<TRIPOS>MOLECULE
*****
 33 36 0 0 0
SMALL
GASTEIGER

@<TRIPOS>ATOM
      1 C          63.6982   89.2277   15.9375 C.ar    1  UNL1        0.0678
      2 C          63.0145   88.6849   17.1573 C.ar    1  UNL1        0.0055
      3 C          62.8978   87.2026   17.3547 C.ar    1  UNL1        0.0016
      4 C          63.4647   86.2629   16.3322 C.ar    1  UNL1        0.0181
      5 C          64.1485   86.8056   15.1123 C.ar    1  UNL1        0.0922
      6 C          64.2653   88.2880   14.9150 C.ar    1  UNL1        0.1576
      7 F          64.9490   88.8306   13.6951 F       1  UNL1       -0.2027
      8 C          63.8150   90.7100   15.7402 C.2     1  UNL1        0.2014
      9 O          63.2323   91.6498   16.7537 O.2     1  UNL1       -0.2864
     10 C          62.4676   90.8085   11.0614 C.2     1  UNL1        0.0974
     11 C          63.4891   91.4571   10.1749 C.2     1  UNL1        0.2421
     12 N          64.7624   91.9894   10.7625 N.2     1  UNL1       -0.0304
     13 C          65.0142   91.8731   12.2366 C.2     1  UNL1        0.3721
     14 N          66.1672   92.3020   13.0948 N.2     1  UNL1       -0.0307
     15 C          65.8584   91.9185   14.5117 C.2     1  UNL1        0.2390
     16 C          64.5144   91.2526   14.5292 C.2     1  UNL1        0.0895
     17 C          63.9927   91.2246   13.1231 C.2     1  UNL1        0.0782
     18 C          62.7194   90.6923   12.5355 C.3     1  UNL1        0.0751
     19 N          59.9209   89.7439    9.8861 N.1     1  UNL1       -0.1910
     20 C          61.1942   90.2762   10.4737 C.1     1  UNL1        0.1003
     21 N          64.7155   85.8659   14.0898 N.pl3   1  UNL1       -0.2127
     22 H          65.5263   86.1138   13.5895 H       1  UNL1        0.1738
     23 S          64.0471   84.5485   13.8297 S.O2    1  UNL1        0.0780
     24 O          62.9178   85.2571   13.1424 O.2     1  UNL1       -0.1498
     25 O          65.1764   83.8398   14.5170 O.2     1  UNL1       -0.1498
     26 C          63.3787   83.2310   13.5695 C.ar    1  UNL1        0.1797
     27 C          63.6822   82.4715   12.3122 C.ar    1  UNL1        0.1611
     28 F          64.6540   83.0293   11.3149 F       1  UNL1       -0.2027
     29 C          63.0139   81.1540   12.0520 C.ar    1  UNL1        0.0312
     30 C          62.0421   80.5961   13.0492 C.ar    1  UNL1        0.0047
     31 C          61.7386   81.3557   14.3065 C.ar    1  UNL1        0.0312
     32 C          62.4069   82.6731   14.5667 C.ar    1  UNL1        0.1611
     33 F          62.1035   83.4327   15.8240 F       1  UNL1       -0.2027
@<TRIPOS>BOND
     1    19    20    3
     2    20    10    1
     3    10    11    2
     4    11    12    1
     5    12    13    2
     6    13    14    1
     7    14    15    2
     8    15    16    1
     9    16     8    1
    10     8     9    2
    11     8     1    1
    12     1     2   ar
    13     2     3   ar
    14     3     4   ar
    15     4     5   ar
    16     5    21    1
    17    21    23    1
    18    23    24    2
    19    23    25    2
    20    23    26    1
    21    26    27   ar
    22    27    28    1
    23    27    29   ar
    24    29    30   ar
    25    30    31   ar
    26    31    32   ar
    27    32    33    1
    28     5     6   ar
    29     6     7    1
    30    16    17    2
    31    17    18    1
    32    18    10    1
    33    17    13    1
    34     6     1   ar
    35    32    26   ar
    36    21    22    1
@<TRIPOS>MOLECULE
*****
 33 36 0 0 0
SMALL
GASTEIGER

@<TRIPOS>ATOM
      1 C          63.4501   88.6043   16.0889 C.ar    1  UNL1        0.0678
      2 C          62.8252   88.0249   17.3234 C.ar    1  UNL1        0.0055
      3 C          62.8649   86.5442   17.5599 C.ar    1  UNL1        0.0016
      4 C          63.5296   85.6428   16.5620 C.ar    1  UNL1        0.0181
      5 C          64.1545   86.2222   15.3275 C.ar    1  UNL1        0.0922
      6 C          64.1148   87.7029   15.0910 C.ar    1  UNL1        0.1576
      7 F          64.7397   88.2822   13.8565 F       1  UNL1       -0.2027
      8 C          63.4104   90.0850   15.8524 C.2     1  UNL1        0.2014
      9 O          63.0563   91.0146   16.9751 O.2     1  UNL1       -0.2864
     10 C          67.0414   92.9576   14.3425 C.2     1  UNL1        0.0974
     11 C          66.9676   93.2675   12.8767 C.2     1  UNL1        0.2421
     12 N          65.8528   92.7039   12.0462 N.2     1  UNL1       -0.0304
     13 C          64.8118   91.8306   12.6815 C.2     1  UNL1        0.3721
     14 N          63.6053   91.1374   12.1215 N.2     1  UNL1       -0.0307
     15 C          62.9334   90.3990   13.2411 C.2     1  UNL1        0.2390
     16 C          63.7247   90.6360   14.4932 C.2     1  UNL1        0.0895
     17 C          64.8857   91.5208   14.1473 C.2     1  UNL1        0.0782
     18 C          66.0005   92.0843   14.9778 C.3     1  UNL1        0.0751
     19 N          69.2710   94.0846   16.0034 N.1     1  UNL1       -0.1910
     20 C          68.1562   93.5211   15.1729 C.1     1  UNL1        0.1003
     21 N          64.8191   85.3208   14.3297 N.pl3   1  UNL1       -0.2127
     22 H          65.6992   85.5606   13.9594 H       1  UNL1        0.1738
     23 S          64.1427   84.0542   13.8960 S.O2    1  UNL1        0.0780
     24 O          65.0831   83.2589   14.7521 O.2     1  UNL1       -0.1498
     25 O          63.2023   84.8495   13.0398 O.2     1  UNL1       -0.1498
     26 C          63.4663   82.7875   13.4622 C.ar    1  UNL1        0.1797
     27 C          63.8410   82.1455   12.1594 C.ar    1  UNL1        0.1611
     28 F          64.8920   82.7700   11.2902 F       1  UNL1       -0.2027
     29 C          63.1646   80.8789   11.7256 C.ar    1  UNL1        0.0312
     30 C          62.1136   80.2543   12.5946 C.ar    1  UNL1        0.0047
     31 C          61.7390   80.8963   13.8975 C.ar    1  UNL1        0.0312
     32 C          62.4153   82.1629   14.3313 C.ar    1  UNL1        0.1611
     33 F          62.0407   82.8050   15.6341 F       1  UNL1       -0.2027
@<TRIPOS>BOND
     1    19    20    3
     2    20    10    1
     3    10    11    2
     4    11    12    1
     5    12    13    2
     6    13    14    1
     7    14    15    2
     8    15    16    1
     9    16     8    1
    10     8     9    2
    11     8     1    1
    12     1     2   ar
    13     2     3   ar
    14     3     4   ar
    15     4     5   ar
    16     5    21    1
    17    21    23    1
    18    23    24    2
    19    23    25    2
    20    23    26    1
    21    26    27   ar
    22    27    28    1
    23    27    29   ar
    24    29    30   ar
    25    30    31   ar
    26    31    32   ar
    27    32    33    1
    28     5     6   ar
    29     6     7    1
    30    16    17    2
    31    17    18    1
    32    18    10    1
    33    17    13    1
    34     6     1   ar
    35    32    26   ar
    36    21    22    1
@<TRIPOS>MOLECULE
*****
 33 36 0 0 0
SMALL
GASTEIGER

@<TRIPOS>ATOM
      1 C          60.9518   88.8658    9.7880 C.ar    1  UNL1        0.0678
      2 C          59.9084   88.7035    8.7228 C.ar    1  UNL1        0.0055
      3 C          59.8210   87.4224    7.9474 C.ar    1  UNL1        0.0016
      4 C          60.7771   86.3035    8.2373 C.ar    1  UNL1        0.0181
      5 C          61.8206   86.4659    9.3026 C.ar    1  UNL1        0.0922
      6 C          61.9080   87.7469   10.0780 C.ar    1  UNL1        0.1576
      7 F          62.9514   87.9091   11.1433 F       1  UNL1       -0.2027
      8 C          61.0392   90.1468   10.5634 C.2     1  UNL1        0.2014
      9 O          59.7875   90.8202   11.0428 O.2     1  UNL1       -0.2864
     10 C          63.7597   90.0455   14.6013 C.2     1  UNL1        0.0974
     11 C          65.0486   90.7985   14.4539 C.2     1  UNL1        0.2421
     12 N          65.3758   91.4788   13.1578 N.2     1  UNL1       -0.0304
     13 C          64.4140   91.4063   12.0090 C.2     1  UNL1        0.3721
     14 N          64.4638   91.9727   10.6210 N.2     1  UNL1       -0.0307
     15 C          63.2056   91.5699    9.9105 C.2     1  UNL1        0.2390
     16 C          62.3782   90.7545   10.8594 C.2     1  UNL1        0.0895
     17 C          63.1251   90.6534   12.1564 C.2     1  UNL1        0.0782
     18 C          62.7980   89.9730   13.4526 C.3     1  UNL1        0.0751
     19 N          63.1055   88.6847   17.1936 N.1     1  UNL1       -0.1910
     20 C          63.4326   89.3651   15.8975 C.1     1  UNL1        0.1003
     21 N          62.7767   85.3470    9.5925 N.pl3   1  UNL1       -0.2127
     22 H          63.3519   84.9931    8.8762 H       1  UNL1        0.1738
     23 S          62.8563   84.7674   10.9737 S.O2    1  UNL1        0.0780
     24 O          64.1765   84.1412   10.6349 O.2     1  UNL1       -0.1498
     25 O          61.5360   85.3935   11.3125 O.2     1  UNL1       -0.1498
     26 C          62.9358   84.1878   12.3550 C.ar    1  UNL1        0.1797
     27 C          63.3720   85.0467   13.5047 C.ar    1  UNL1        0.1611
     28 F          63.7287   86.4852   13.2733 F       1  UNL1       -0.2027
     29 C          63.4516   84.4672   14.8859 C.ar    1  UNL1        0.0312
     30 C          63.0950   83.0287   15.1174 C.ar    1  UNL1        0.0047
     31 C          62.6588   82.1697   13.9677 C.ar    1  UNL1        0.0312
     32 C          62.5792   82.7493   12.5864 C.ar    1  UNL1        0.1611
     33 F          62.1430   81.8904   11.4367 F       1  UNL1       -0.2027
@<TRIPOS>BOND
     1    19    20    3
     2    20    10    1
     3    10    11    2
     4    11    12    1
     5    12    13    2
     6    13    14    1
     7    14    15    2
     8    15    16    1
     9    16     8    1
    10     8     9    2
    11     8     1    1
    12     1     2   ar
    13     2     3   ar
    14     3     4   ar
    15     4     5   ar
    16     5    21    1
    17    21    23    1
    18    23    24    2
    19    23    25    2
    20    23    26    1
    21    26    27   ar
    22    27    28    1
    23    27    29   ar
    24    29    30   ar
    25    30    31   ar
    26    31    32   ar
    27    32    33    1
    28     5     6   ar
    29     6     7    1
    30    16    17    2
    31    17    18    1
    32    18    10    1
    33    17    13    1
    34     6     1   ar
    35    32    26   ar
    36    21    22    1
@<TRIPOS>MOLECULE
*****
 33 36 0 0 0
SMALL
GASTEIGER

@<TRIPOS>ATOM
      1 C          60.8053   88.4114    9.7493 C.ar    1  UNL1        0.0678
      2 C          59.7046   88.1521    8.7638 C.ar    1  UNL1        0.0055
      3 C          59.7081   86.8923    7.9497 C.ar    1  UNL1        0.0016
      4 C          60.8124   85.8917    8.1210 C.ar    1  UNL1        0.0181
      5 C          61.9132   86.1510    9.1065 C.ar    1  UNL1        0.0922
      6 C          61.9096   87.4108    9.9207 C.ar    1  UNL1        0.1576
      7 F          63.0104   87.6700   10.9061 F       1  UNL1       -0.2027
      8 C          60.8017   89.6712   10.5635 C.2     1  UNL1        0.2014
      9 O          59.5221   90.1719   11.1649 O.2     1  UNL1       -0.2864
     10 C          63.6094   90.1361   14.5153 C.2     1  UNL1        0.0974
     11 C          64.8107   91.0022   14.2773 C.2     1  UNL1        0.2421
     12 N          65.0369   91.6166   12.9277 N.2     1  UNL1       -0.0304
     13 C          64.0617   91.3649   11.8161 C.2     1  UNL1        0.3721
     14 N          64.0217   91.8316   10.3912 N.2     1  UNL1       -0.0307
     15 C          62.7956   91.2540    9.7485 C.2     1  UNL1        0.2390
     16 C          62.0779   90.4302   10.7762 C.2     1  UNL1        0.0895
     17 C          62.8605   90.4988   12.0541 C.2     1  UNL1        0.0782
     18 C          62.6343   89.8844   13.4037 C.3     1  UNL1        0.0751
     19 N          63.1571   88.9073   17.2145 N.1     1  UNL1       -0.1910
     20 C          63.3833   89.5217   15.8649 C.1     1  UNL1        0.1003
     21 N          63.0174   85.1504    9.2778 N.pl3   1  UNL1       -0.2127
     22 H          63.6845   85.0265    8.5644 H       1  UNL1        0.1738
     23 S          63.1055   84.3386   10.5361 S.O2    1  UNL1        0.0780
     24 O          64.5295   83.9944   10.2145 O.2     1  UNL1       -0.1498
     25 O          61.6814   84.6827   10.8577 O.2     1  UNL1       -0.1498
     26 C          63.1934   83.5267   11.7944 C.ar    1  UNL1        0.1797
     27 C          63.0194   82.0379   11.7400 C.ar    1  UNL1        0.1611
     28 F          62.7575   81.3607   10.4273 F       1  UNL1       -0.2027
     29 C          63.1074   81.2260   12.9982 C.ar    1  UNL1        0.0312
     30 C          63.3693   81.9030   14.3108 C.ar    1  UNL1        0.0047
     31 C          63.5432   83.3919   14.3653 C.ar    1  UNL1        0.0312
     32 C          63.4553   84.2038   13.1070 C.ar    1  UNL1        0.1611
     33 F          63.6293   85.6926   13.1614 F       1  UNL1       -0.2027
@<TRIPOS>BOND
     1    19    20    3
     2    20    10    1
     3    10    11    2
     4    11    12    1
     5    12    13    2
     6    13    14    1
     7    14    15    2
     8    15    16    1
     9    16     8    1
    10     8     9    2
    11     8     1    1
    12     1     2   ar
    13     2     3   ar
    14     3     4   ar
    15     4     5   ar
    16     5    21    1
    17    21    23    1
    18    23    24    2
    19    23    25    2
    20    23    26    1
    21    26    27   ar
    22    27    28    1
    23    27    29   ar
    24    29    30   ar
    25    30    31   ar
    26    31    32   ar
    27    32    33    1
    28     5     6   ar
    29     6     7    1
    30    16    17    2
    31    17    18    1
    32    18    10    1
    33    17    13    1
    34     6     1   ar
    35    32    26   ar
    36    21    22    1
@<TRIPOS>MOLECULE
*****
 33 36 0 0 0
SMALL
GASTEIGER

@<TRIPOS>ATOM
      1 C          63.4348   88.4990   15.6866 C.ar    1  UNL1        0.0678
      2 C          62.8592   88.2022   17.0396 C.ar    1  UNL1        0.0055
      3 C          62.9499   86.8161   17.6056 C.ar    1  UNL1        0.0016
      4 C          63.6163   85.7267   16.8187 C.ar    1  UNL1        0.0181
      5 C          64.1919   86.0236   15.4656 C.ar    1  UNL1        0.0922
      6 C          64.1011   87.4097   14.8996 C.ar    1  UNL1        0.1576
      7 F          64.6768   87.7065   13.5466 F       1  UNL1       -0.2027
      8 C          63.3440   89.8852   15.1206 C.2     1  UNL1        0.2014
      9 O          62.4136   90.1697   13.9789 O.2     1  UNL1       -0.2864
     10 C          67.1512   92.2889   13.2648 C.2     1  UNL1        0.0974
     11 C          67.6951   93.3284   14.1994 C.2     1  UNL1        0.2421
     12 N          67.0635   93.5316   15.5447 N.2     1  UNL1       -0.0304
     13 C          65.8880   92.6952   15.9554 C.2     1  UNL1        0.3721
     14 N          65.0638   92.6688   17.2084 N.2     1  UNL1       -0.0307
     15 C          64.0105   91.6129   17.0482 C.2     1  UNL1        0.2390
     16 C          64.1837   90.9868   15.6962 C.2     1  UNL1        0.0895
     17 C          65.3441   91.6557   15.0208 C.2     1  UNL1        0.0782
     18 C          65.9757   91.4526   13.6755 C.3     1  UNL1        0.0751
     19 N          68.4143   91.8826   10.5742 N.1     1  UNL1       -0.1910
     20 C          67.7828   92.0858   11.9195 C.1     1  UNL1        0.1003
     21 N          64.8583   84.9342   14.6787 N.pl3   1  UNL1       -0.2127
     22 H          65.8094   85.0128   14.4369 H       1  UNL1        0.1738
     23 S          64.0755   83.7251   14.2601 S.O2    1  UNL1        0.0780
     24 O          63.5596   84.4723   13.0662 O.2     1  UNL1       -0.1498
     25 O          64.5914   82.9778   15.4539 O.2     1  UNL1       -0.1498
     26 C          63.2927   82.5159   13.8415 C.ar    1  UNL1        0.1797
     27 C          61.9833   82.2041   14.5034 C.ar    1  UNL1        0.1611
     28 F          61.4565   83.1015   15.5838 F       1  UNL1       -0.2027
     29 C          61.2005   80.9950   14.0848 C.ar    1  UNL1        0.0312
     30 C          61.7271   80.0976   13.0044 C.ar    1  UNL1        0.0047
     31 C          63.0366   80.4093   12.3425 C.ar    1  UNL1        0.0312
     32 C          63.8194   81.6185   12.7611 C.ar    1  UNL1        0.1611
     33 F          65.1288   81.9303   12.0992 F       1  UNL1       -0.2027
@<TRIPOS>BOND
     1    19    20    3
     2    20    10    1
     3    10    11    2
     4    11    12    1
     5    12    13    2
     6    13    14    1
     7    14    15    2
     8    15    16    1
     9    16     8    1
    10     8     9    2
    11     8     1    1
    12     1     2   ar
    13     2     3   ar
    14     3     4   ar
    15     4     5   ar
    16     5    21    1
    17    21    23    1
    18    23    24    2
    19    23    25    2
    20    23    26    1
    21    26    27   ar
    22    27    28    1
    23    27    29   ar
    24    29    30   ar
    25    30    31   ar
    26    31    32   ar
    27    32    33    1
    28     5     6   ar
    29     6     7    1
    30    16    17    2
    31    17    18    1
    32    18    10    1
    33    17    13    1
    34     6     1   ar
    35    32    26   ar
    36    21    22    1
@<TRIPOS>MOLECULE
*****
 33 36 0 0 0
SMALL
GASTEIGER

@<TRIPOS>ATOM
      1 C          63.3560   88.4625   15.7707 C.ar    1  UNL1        0.0678
      2 C          62.7225   88.5118   17.1295 C.ar    1  UNL1        0.0055
      3 C          62.6272   87.2652   17.9583 C.ar    1  UNL1        0.0016
      4 C          63.1653   85.9692   17.4283 C.ar    1  UNL1        0.0181
      5 C          63.7988   85.9199   16.0695 C.ar    1  UNL1        0.0922
      6 C          63.8942   87.1665   15.2407 C.ar    1  UNL1        0.1576
      7 F          64.5276   87.1171   13.8819 F       1  UNL1       -0.2027
      8 C          63.4514   89.7091   14.9419 C.2     1  UNL1        0.2014
      9 O          62.7362   89.7913   13.6259 O.2     1  UNL1       -0.2864
     10 C          66.8790   92.3570   12.7157 C.2     1  UNL1        0.0974
     11 C          67.4352   93.4422   13.5892 C.2     1  UNL1        0.2421
     12 N          66.9240   93.6142   14.9889 N.2     1  UNL1       -0.0304
     13 C          65.8567   92.7010   15.5151 C.2     1  UNL1        0.3721
     14 N          65.1618   92.6293   16.8424 N.2     1  UNL1       -0.0307
     15 C          64.1762   91.4998   16.7893 C.2     1  UNL1        0.2390
     16 C          64.2619   90.8734   15.4291 C.2     1  UNL1        0.0895
     17 C          65.3006   91.6158   14.6416 C.2     1  UNL1        0.0782
     18 C          65.8117   91.4438   13.2419 C.3     1  UNL1        0.0751
     19 N          67.9013   92.0130    9.9163 N.1     1  UNL1       -0.1910
     20 C          67.3902   92.1850   11.3160 C.1     1  UNL1        0.1003
     21 N          64.3369   84.6239   15.5395 N.pl3   1  UNL1       -0.2127
     22 H          64.8440   84.0227   16.1316 H       1  UNL1        0.1738
     23 S          64.1023   84.2440   14.1075 S.O2    1  UNL1        0.0780
     24 O          62.6362   84.0955   14.3870 O.2     1  UNL1       -0.1498
     25 O          65.5685   84.3926   13.8280 O.2     1  UNL1       -0.1498
     26 C          63.8678   83.8641   12.6754 C.ar    1  UNL1        0.1797
     27 C          64.2099   82.4832   12.2003 C.ar    1  UNL1        0.1611
     28 F          64.7865   81.4820   13.1570 F       1  UNL1       -0.2027
     29 C          63.9755   82.1032   10.7683 C.ar    1  UNL1        0.0312
     30 C          63.3989   83.1043    9.8114 C.ar    1  UNL1        0.0047
     31 C          63.0568   84.4852   10.2866 C.ar    1  UNL1        0.0312
     32 C          63.2913   84.8652   11.7186 C.ar    1  UNL1        0.1611
     33 F          62.9492   86.2461   12.1939 F       1  UNL1       -0.2027
@<TRIPOS>BOND
     1    19    20    3
     2    20    10    1
     3    10    11    2
     4    11    12    1
     5    12    13    2
     6    13    14    1
     7    14    15    2
     8    15    16    1
     9    16     8    1
    10     8     9    2
    11     8     1    1
    12     1     2   ar
    13     2     3   ar
    14     3     4   ar
    15     4     5   ar
    16     5    21    1
    17    21    23    1
    18    23    24    2
    19    23    25    2
    20    23    26    1
    21    26    27   ar
    22    27    28    1
    23    27    29   ar
    24    29    30   ar
    25    30    31   ar
    26    31    32   ar
    27    32    33    1
    28     5     6   ar
    29     6     7    1
    30    16    17    2
    31    17    18    1
    32    18    10    1
    33    17    13    1
    34     6     1   ar
    35    32    26   ar
    36    21    22    1
@<TRIPOS>MOLECULE
*****
 33 36 0 0 0
SMALL
GASTEIGER

@<TRIPOS>ATOM
      1 C          61.0970   88.3940    9.8242 C.ar    1  UNL1        0.0678
      2 C          60.1367   88.0742    8.7172 C.ar    1  UNL1        0.0055
      3 C          60.2495   86.7734    7.9789 C.ar    1  UNL1        0.0016
      4 C          61.3226   85.7923    8.3476 C.ar    1  UNL1        0.0181
      5 C          62.2829   86.1122    9.4547 C.ar    1  UNL1        0.0922
      6 C          62.1701   87.4130   10.1930 C.ar    1  UNL1        0.1576
      7 F          63.1304   87.7328   11.3000 F       1  UNL1       -0.2027
      8 C          60.9842   89.6949   10.5625 C.2     1  UNL1        0.2014
      9 O          60.0963   90.7825   10.0344 O.2     1  UNL1       -0.2864
     10 C          65.0629   92.2160   11.4136 C.2     1  UNL1        0.0974
     11 C          65.4939   92.1586   12.8492 C.2     1  UNL1        0.2421
     12 N          64.6861   91.3792   13.8442 N.2     1  UNL1       -0.0304
     13 C          63.4473   90.6573   13.4037 C.2     1  UNL1        0.3721
     14 N          62.4567   89.8153   14.1517 N.2     1  UNL1       -0.0307
     15 C          61.4134   89.3522   13.1785 C.2     1  UNL1        0.2390
     16 C          61.7592   89.9081   11.8289 C.2     1  UNL1        0.0895
     17 C          63.0163   90.7147   11.9681 C.2     1  UNL1        0.0782
     18 C          63.8241   91.4941   10.9731 C.3     1  UNL1        0.0751
     19 N          66.6785   93.7746    9.4235 N.1     1  UNL1       -0.1910
     20 C          65.8707   92.9953   10.4186 C.1     1  UNL1        0.1003
     21 N          63.3560   85.1311    9.8234 N.pl3   1  UNL1       -0.2127
     22 H          64.2170   85.1408    9.3460 H       1  UNL1        0.1738
     23 S          63.1174   84.1353   10.9195 S.O2    1  UNL1        0.0780
     24 O          61.7814   84.7589   11.1953 O.2     1  UNL1       -0.1498
     25 O          64.4534   83.5116   10.6438 O.2     1  UNL1       -0.1498
     26 C          62.8788   83.1394   12.0156 C.ar    1  UNL1        0.1797
     27 C          62.7440   83.6047   13.4353 C.ar    1  UNL1        0.1611
     28 F          62.8478   85.0657   13.7589 F       1  UNL1       -0.2027
     29 C          62.5054   82.6089   14.5314 C.ar    1  UNL1        0.0312
     30 C          62.4016   81.1479   14.2079 C.ar    1  UNL1        0.0047
     31 C          62.5364   80.6826   12.7883 C.ar    1  UNL1        0.0312
     32 C          62.7750   81.6784   11.6921 C.ar    1  UNL1        0.1611
     33 F          62.9098   81.2133   10.2725 F       1  UNL1       -0.2027
@<TRIPOS>BOND
     1    19    20    3
     2    20    10    1
     3    10    11    2
     4    11    12    1
     5    12    13    2
     6    13    14    1
     7    14    15    2
     8    15    16    1
     9    16     8    1
    10     8     9    2
    11     8     1    1
    12     1     2   ar
    13     2     3   ar
    14     3     4   ar
    15     4     5   ar
    16     5    21    1
    17    21    23    1
    18    23    24    2
    19    23    25    2
    20    23    26    1
    21    26    27   ar
    22    27    28    1
    23    27    29   ar
    24    29    30   ar
    25    30    31   ar
    26    31    32   ar
    27    32    33    1
    28     5     6   ar
    29     6     7    1
    30    16    17    2
    31    17    18    1
    32    18    10    1
    33    17    13    1
    34     6     1   ar
    35    32    26   ar
    36    21    22    1
@<TRIPOS>MOLECULE
*****
 33 36 0 0 0
SMALL
GASTEIGER

@<TRIPOS>ATOM
      1 C          63.6019   88.9401   15.5530 C.ar    1  UNL1        0.0678
      2 C          62.9597   88.6398   16.8748 C.ar    1  UNL1        0.0055
      3 C          62.9599   87.2376   17.4075 C.ar    1  UNL1        0.0016
      4 C          63.6024   86.1356   16.6184 C.ar    1  UNL1        0.0181
      5 C          64.2447   86.4359   15.2965 C.ar    1  UNL1        0.0922
      6 C          64.2445   87.8381   14.7638 C.ar    1  UNL1        0.1576
      7 F          64.8867   88.1383   13.4419 F       1  UNL1       -0.2027
      8 C          63.6017   90.3423   15.0203 C.2     1  UNL1        0.2014
      9 O          63.8320   91.4975   15.9491 O.2     1  UNL1       -0.2864
     10 C          59.6726   89.5870   12.2439 C.2     1  UNL1        0.0974
     11 C          59.8861   89.9830   10.8130 C.2     1  UNL1        0.2421
     12 N          61.2079   90.5440   10.3792 N.2     1  UNL1       -0.0304
     13 C          62.3162   90.7090   11.3763 C.2     1  UNL1        0.3721
     14 N          63.7165   91.2300   11.2435 N.2     1  UNL1       -0.0307
     15 C          64.3685   91.1561   12.5924 C.2     1  UNL1        0.2390
     16 C          63.3712   90.5894   13.5589 C.2     1  UNL1        0.0895
     17 C          62.1027   90.3131   12.8073 C.2     1  UNL1        0.0782
     18 C          60.7810   89.7521   13.2411 C.3     1  UNL1        0.0751
     19 N          57.0291   88.4651   13.1115 N.1     1  UNL1       -0.1910
     20 C          58.3508   89.0261   12.6777 C.1     1  UNL1        0.1003
     21 N          64.8872   85.3339   14.5073 N.pl3   1  UNL1       -0.2127
     22 H          65.8207   85.4229   14.2074 H       1  UNL1        0.1738
     23 S          64.1074   84.0964   14.1750 S.O2    1  UNL1        0.0780
     24 O          64.7445   83.3844   15.3313 O.2     1  UNL1       -0.1498
     25 O          63.4703   84.8083   13.0186 O.2     1  UNL1       -0.1498
     26 C          63.3276   82.8588   13.8427 C.ar    1  UNL1        0.1797
     27 C          62.0829   82.5277   14.6114 C.ar    1  UNL1        0.1611
     28 F          61.6179   83.4341   15.7125 F       1  UNL1       -0.2027
     29 C          61.3030   81.2902   14.2792 C.ar    1  UNL1        0.0312
     30 C          61.7679   80.3838   13.1781 C.ar    1  UNL1        0.0047
     31 C          63.0127   80.7149   12.4093 C.ar    1  UNL1        0.0312
     32 C          63.7925   81.9524   12.7416 C.ar    1  UNL1        0.1611
     33 F          65.0372   82.2835   11.9729 F       1  UNL1       -0.2027
@<TRIPOS>BOND
     1    19    20    3
     2    20    10    1
     3    10    11    2
     4    11    12    1
     5    12    13    2
     6    13    14    1
     7    14    15    2
     8    15    16    1
     9    16     8    1
    10     8     9    2
    11     8     1    1
    12     1     2   ar
    13     2     3   ar
    14     3     4   ar
    15     4     5   ar
    16     5    21    1
    17    21    23    1
    18    23    24    2
    19    23    25    2
    20    23    26    1
    21    26    27   ar
    22    27    28    1
    23    27    29   ar
    24    29    30   ar
    25    30    31   ar
    26    31    32   ar
    27    32    33    1
    28     5     6   ar
    29     6     7    1
    30    16    17    2
    31    17    18    1
    32    18    10    1
    33    17    13    1
    34     6     1   ar
    35    32    26   ar
    36    21    22    1
@<TRIPOS>MOLECULE
*****
 33 36 0 0 0
SMALL
GASTEIGER

@<TRIPOS>ATOM
      1 C          63.4133   88.6750   15.6314 C.ar    1  UNL1        0.0678
      2 C          62.8703   88.4305   17.0081 C.ar    1  UNL1        0.0055
      3 C          63.0120   87.0780   17.6411 C.ar    1  UNL1        0.0016
      4 C          63.6969   85.9699   16.8973 C.ar    1  UNL1        0.0181
      5 C          64.2399   86.2144   15.5206 C.ar    1  UNL1        0.0922
      6 C          64.0982   87.5669   14.8876 C.ar    1  UNL1        0.1576
      7 F          64.6412   87.8112   13.5109 F       1  UNL1       -0.2027
      8 C          63.2715   90.0274   14.9984 C.2     1  UNL1        0.2014
      9 O          63.6892   91.2555   15.7516 O.2     1  UNL1       -0.2864
     10 C          65.0157   92.2840   11.0510 C.2     1  UNL1        0.0974
     11 C          64.1148   92.1516    9.8590 C.2     1  UNL1        0.2421
     12 N          62.8310   91.3840    9.9708 N.2     1  UNL1       -0.0304
     13 C          62.4480   90.7488   11.2746 C.2     1  UNL1        0.3721
     14 N          61.2544   89.9376   11.6835 N.2     1  UNL1       -0.0307
     15 C          61.4176   89.5687   13.1283 C.2     1  UNL1        0.2390
     16 C          62.7121   90.1518   13.6122 C.2     1  UNL1        0.0895
     17 C          63.3489   90.8812   12.4665 C.2     1  UNL1        0.0782
     18 C          64.6328   91.6488   12.3547 C.3     1  UNL1        0.0751
     19 N          67.5835   93.8192   10.8274 N.1     1  UNL1       -0.1910
     20 C          66.2996   93.0516   10.9392 C.1     1  UNL1        0.1003
     21 N          64.9247   85.1063   14.7769 N.pl3   1  UNL1       -0.2127
     22 H          65.8859   85.1704   14.5736 H       1  UNL1        0.1738
     23 S          64.1452   83.9005   14.3429 S.O2    1  UNL1        0.0780
     24 O          64.6295   83.1529   15.5497 O.2     1  UNL1       -0.1498
     25 O          63.6607   84.6481   13.1360 O.2     1  UNL1       -0.1498
     26 C          63.3655   82.6947   13.9088 C.ar    1  UNL1        0.1797
     27 C          62.0646   82.3622   14.5775 C.ar    1  UNL1        0.1611
     28 F          61.5433   83.2354   15.6802 F       1  UNL1       -0.2027
     29 C          61.2850   81.1565   14.1435 C.ar    1  UNL1        0.0312
     30 C          61.8062   80.2833   13.0409 C.ar    1  UNL1        0.0047
     31 C          63.1071   80.6158   12.3722 C.ar    1  UNL1        0.0312
     32 C          63.8867   81.8215   12.8062 C.ar    1  UNL1        0.1611
     33 F          65.1876   82.1541   12.1376 F       1  UNL1       -0.2027
@<TRIPOS>BOND
     1    19    20    3
     2    20    10    1
     3    10    11    2
     4    11    12    1
     5    12    13    2
     6    13    14    1
     7    14    15    2
     8    15    16    1
     9    16     8    1
    10     8     9    2
    11     8     1    1
    12     1     2   ar
    13     2     3   ar
    14     3     4   ar
    15     4     5   ar
    16     5    21    1
    17    21    23    1
    18    23    24    2
    19    23    25    2
    20    23    26    1
    21    26    27   ar
    22    27    28    1
    23    27    29   ar
    24    29    30   ar
    25    30    31   ar
    26    31    32   ar
    27    32    33    1
    28     5     6   ar
    29     6     7    1
    30    16    17    2
    31    17    18    1
    32    18    10    1
    33    17    13    1
    34     6     1   ar
    35    32    26   ar
    36    21    22    1
