@<TRIPOS>MOLECULE
*****
 29 32 0 0 0
SMALL
GASTEIGER

@<TRIPOS>ATOM
      1 C          64.1353   90.6391   14.0551 C.ar    1  UNL1        0.0516
      2 C          65.4521   91.2411   14.4472 C.ar    1  UNL1        0.0147
      3 C          66.2449   92.0277   13.4460 C.ar    1  UNL1        0.0010
      4 C          65.7210   92.2125   12.0526 C.ar    1  UNL1       -0.0014
      5 C          64.4043   91.6105   11.6605 C.ar    1  UNL1        0.0010
      6 C          63.6114   90.8238   12.6618 C.ar    1  UNL1        0.0147
      7 C          66.5139   92.9992   11.0514 C.2     1  UNL1        0.0158
      8 C          67.3812   92.2877   10.0555 C.2     1  UNL1        0.0487
      9 C          68.1740   93.0743    9.0544 C.2     1  UNL1        0.2355
     10 N          68.0997   94.5725    9.0489 N.2     1  UNL1       -0.0325
     11 C          67.2325   95.2840   10.0448 C.2     1  UNL1        0.3799
     12 N          66.9605   96.7404   10.2792 N.2     1  UNL1       -0.0106
     13 C          65.9995   96.8538   11.4253 C.2     1  UNL1        0.3351
     14 N          65.6775   95.4675   11.8992 N.2     1  UNL1       -0.2103
     15 C          66.4396   94.4973   11.0460 C.3     1  UNL1        0.2404
     16 O          64.9813   87.8548   14.7846 O.2     1  UNL1       -0.2525
     17 C          63.7654   88.4602   15.4211 C.2     1  UNL1        0.3047
     18 N          62.9726   87.6736   16.4223 N.am    1  UNL1       -0.2846
     19 N          63.3425   89.8524   15.0563 N.am    1  UNL1       -0.2683
     20 H          62.1746   88.0710   16.8400 H       1  UNL1        0.1513
     21 H          62.5444   90.2498   15.4740 H       1  UNL1        0.1564
     22 C          63.3956   86.2814   16.7871 C.3     1  UNL1        0.1177
     23 C          63.3947   85.2005   15.7471 C.ar    1  UNL1       -0.0024
     24 C          62.1789   84.3424   15.5584 C.ar    1  UNL1       -0.0003
     25 C          62.1779   83.2615   14.5184 C.ar    1  UNL1        0.0294
     26 C          63.3926   83.0387   13.6670 C.ar    1  UNL1        0.1401
     27 F          63.3915   81.9578   12.6270 F       1  UNL1       -0.2042
     28 C          64.6083   83.8968   13.8557 C.ar    1  UNL1        0.0294
     29 C          64.6094   84.9777   14.8957 C.ar    1  UNL1       -0.0003
@<TRIPOS>BOND
     1    16    17    2
     2    17    18   am
     3    18    22    1
     4    22    23    1
     5    23    24   ar
     6    24    25   ar
     7    25    26   ar
     8    26    27    1
     9    26    28   ar
    10    28    29   ar
    11    17    19   am
    12    19     1    1
    13     1     2   ar
    14     2     3   ar
    15     3     4   ar
    16     4     7    1
    17     7     8    2
    18     8     9    1
    19     9    10    2
    20    10    11    1
    21    11    12    2
    22    12    13    1
    23    13    14    2
    24    14    15    1
    25     4     5   ar
    26     5     6   ar
    27    29    23   ar
    28     6     1   ar
    29    15     7    1
    30    15    11    1
    31    18    20    1
    32    19    21    1
@<TRIPOS>MOLECULE
*****
 29 32 0 0 0
SMALL
GASTEIGER

@<TRIPOS>ATOM
      1 C          64.0425   90.5298   14.1452 C.ar    1  UNL1        0.0516
      2 C          65.1721   91.3525   14.6906 C.ar    1  UNL1        0.0147
      3 C          65.8572   92.3596   13.8153 C.ar    1  UNL1        0.0010
      4 C          65.4127   92.5443   12.3945 C.ar    1  UNL1       -0.0014
      5 C          64.2831   91.7217   11.8492 C.ar    1  UNL1        0.0010
      6 C          63.5980   90.7145   12.7246 C.ar    1  UNL1        0.0147
      7 C          66.0978   93.5515   11.5192 C.2     1  UNL1        0.0158
      8 C          65.8049   95.0130   11.6865 C.2     1  UNL1        0.0487
      9 C          66.4899   96.0202   10.8113 C.2     1  UNL1        0.2355
     10 N          67.4681   95.5659    9.7687 N.2     1  UNL1       -0.0325
     11 C          67.7610   94.1043    9.6014 C.2     1  UNL1        0.3799
     12 N          68.6707   93.3636    8.6666 N.2     1  UNL1       -0.0106
     13 C          68.5477   91.8986    8.9642 C.2     1  UNL1        0.3351
     14 N          67.5621   91.7339   10.0829 N.2     1  UNL1       -0.2103
     15 C          67.0759   93.0971   10.4767 C.3     1  UNL1        0.2404
     16 O          65.2426   87.8062   14.5209 O.2     1  UNL1       -0.2525
     17 C          63.9575   88.1608   15.2084 C.2     1  UNL1        0.3047
     18 N          63.2724   87.1536   16.0837 N.am    1  UNL1       -0.2846
     19 N          63.3574   89.5227   15.0205 N.am    1  UNL1       -0.2683
     20 H          62.4289   87.3864   16.5349 H       1  UNL1        0.1513
     21 H          62.5139   89.7555   15.4717 H       1  UNL1        0.1564
     22 C          63.8725   85.7917   16.2716 C.3     1  UNL1        0.1177
     23 C          63.6167   84.7135   15.2606 C.ar    1  UNL1       -0.0024
     24 C          62.4582   83.7775   15.4392 C.ar    1  UNL1       -0.0003
     25 C          62.2023   82.6994   14.4284 C.ar    1  UNL1        0.0294
     26 C          63.1049   82.5570   13.2388 C.ar    1  UNL1        0.1401
     27 F          62.8490   81.4788   12.2279 F       1  UNL1       -0.2042
     28 C          64.2634   83.4930   13.0602 C.ar    1  UNL1        0.0294
     29 C          64.5193   84.5712   14.0711 C.ar    1  UNL1       -0.0003
@<TRIPOS>BOND
     1    16    17    2
     2    17    18   am
     3    18    22    1
     4    22    23    1
     5    23    24   ar
     6    24    25   ar
     7    25    26   ar
     8    26    27    1
     9    26    28   ar
    10    28    29   ar
    11    17    19   am
    12    19     1    1
    13     1     2   ar
    14     2     3   ar
    15     3     4   ar
    16     4     7    1
    17     7     8    2
    18     8     9    1
    19     9    10    2
    20    10    11    1
    21    11    12    2
    22    12    13    1
    23    13    14    2
    24    14    15    1
    25     4     5   ar
    26     5     6   ar
    27    29    23   ar
    28     6     1   ar
    29    15     7    1
    30    15    11    1
    31    18    20    1
    32    19    21    1
@<TRIPOS>MOLECULE
*****
 29 32 0 0 0
SMALL
GASTEIGER

@<TRIPOS>ATOM
      1 C          60.4366   86.9070    8.6076 C.ar    1  UNL1        0.0516
      2 C          61.5923   85.9825    8.3628 C.ar    1  UNL1        0.0147
      3 C          62.3856   85.4510    9.5195 C.ar    1  UNL1        0.0010
      4 C          62.0234   85.8440   10.9211 C.ar    1  UNL1       -0.0014
      5 C          60.8678   86.7685   11.1659 C.ar    1  UNL1        0.0010
      6 C          60.0745   87.2999   10.0091 C.ar    1  UNL1        0.0147
      7 C          62.8168   85.3125   12.0778 C.2     1  UNL1        0.0158
      8 C          62.9688   83.8321   12.2659 C.2     1  UNL1        0.0487
      9 C          63.7622   83.3006   13.4226 C.2     1  UNL1        0.2355
     10 N          64.4036   84.2495   14.3913 N.2     1  UNL1       -0.0325
     11 C          64.2516   85.7298   14.2032 C.2     1  UNL1        0.3799
     12 N          64.7655   86.8994   14.9893 N.2     1  UNL1       -0.0106
     13 C          64.2897   88.1538   14.3184 C.2     1  UNL1        0.3351
     14 N          63.4818   87.7595   13.1177 N.2     1  UNL1       -0.2103
     15 C          63.4582   86.2613   13.0465 C.3     1  UNL1        0.2404
     16 O          60.3871   89.8544    8.0508 O.2     1  UNL1       -0.2525
     17 C          59.6185   88.9122    7.1724 C.2     1  UNL1        0.3047
     18 N          58.8251   89.4437    6.0158 N.am    1  UNL1       -0.2846
     19 N          59.6433   87.4385    7.4509 N.am    1  UNL1       -0.2683
     20 H          58.3207   88.8253    5.4393 H       1  UNL1        0.1513
     21 H          59.1389   86.8200    6.8744 H       1  UNL1        0.1564
     22 C          58.8003   90.9175    5.7373 C.3     1  UNL1        0.1177
     23 C          59.7057   91.4986    4.6921 C.ar    1  UNL1       -0.0024
     24 C          59.1705   92.4938    3.7055 C.ar    1  UNL1       -0.0003
     25 C          60.0757   93.0749    2.6602 C.ar    1  UNL1        0.0294
     26 C          61.5162   92.6609    2.6014 C.ar    1  UNL1        0.1401
     27 F          62.4215   93.2420    1.5561 F       1  UNL1       -0.2042
     28 C          62.0515   91.6657    3.5879 C.ar    1  UNL1        0.0294
     29 C          61.1462   91.0846    4.6332 C.ar    1  UNL1       -0.0003
@<TRIPOS>BOND
     1    16    17    2
     2    17    18   am
     3    18    22    1
     4    22    23    1
     5    23    24   ar
     6    24    25   ar
     7    25    26   ar
     8    26    27    1
     9    26    28   ar
    10    28    29   ar
    11    17    19   am
    12    19     1    1
    13     1     2   ar
    14     2     3   ar
    15     3     4   ar
    16     4     7    1
    17     7     8    2
    18     8     9    1
    19     9    10    2
    20    10    11    1
    21    11    12    2
    22    12    13    1
    23    13    14    2
    24    14    15    1
    25     4     5   ar
    26     5     6   ar
    27    29    23   ar
    28     6     1   ar
    29    15     7    1
    30    15    11    1
    31    18    20    1
    32    19    21    1
@<TRIPOS>MOLECULE
*****
 29 32 0 0 0
SMALL
GASTEIGER

@<TRIPOS>ATOM
      1 C          60.6615   86.7054    8.8643 C.ar    1  UNL1        0.0516
      2 C          61.8270   85.7799    8.6757 C.ar    1  UNL1        0.0147
      3 C          62.5911   85.2837    9.8672 C.ar    1  UNL1        0.0010
      4 C          62.1899   85.7129   11.2474 C.ar    1  UNL1       -0.0014
      5 C          61.0246   86.6382   11.4361 C.ar    1  UNL1        0.0010
      6 C          60.2604   87.1345   10.2445 C.ar    1  UNL1        0.0147
      7 C          62.9542   85.2166   12.4389 C.2     1  UNL1        0.0158
      8 C          63.6488   86.1909   13.3434 C.2     1  UNL1        0.0487
      9 C          64.4130   85.6947   14.5349 C.2     1  UNL1        0.2355
     10 N          64.4826   84.2240   14.8220 N.2     1  UNL1       -0.0325
     11 C          63.7880   83.2497   13.9175 C.2     1  UNL1        0.3799
     12 N          63.6810   81.7538   13.9467 N.2     1  UNL1       -0.0106
     13 C          62.8506   81.3256   12.7732 C.2     1  UNL1        0.3351
     14 N          62.4444   82.5568   12.0188 N.2     1  UNL1       -0.2103
     15 C          63.0238   83.7460   12.7260 C.3     1  UNL1        0.2404
     16 O          60.3962   89.6531    8.3739 O.2     1  UNL1       -0.2525
     17 C          59.7647   88.6755    7.4276 C.2     1  UNL1        0.3047
     18 N          59.0005   89.1717    6.2361 N.am    1  UNL1       -0.2846
     19 N          59.8974   87.2016    7.6729 N.am    1  UNL1       -0.2683
     20 H          58.5860   88.5301    5.6151 H       1  UNL1        0.1513
     21 H          59.4829   86.5599    7.0518 H       1  UNL1        0.1564
     22 C          58.8678   90.6456    5.9908 C.3     1  UNL1        0.1177
     23 C          59.6761   91.3020    4.9111 C.ar    1  UNL1       -0.0024
     24 C          61.1226   90.9457    4.7355 C.ar    1  UNL1       -0.0003
     25 C          61.9309   91.6020    3.6559 C.ar    1  UNL1        0.0294
     26 C          61.2928   92.6145    2.7517 C.ar    1  UNL1        0.1401
     27 F          62.1012   93.2708    1.6719 F       1  UNL1       -0.2042
     28 C          59.8464   92.9708    2.9272 C.ar    1  UNL1        0.0294
     29 C          59.0380   92.3145    4.0069 C.ar    1  UNL1       -0.0003
@<TRIPOS>BOND
     1    16    17    2
     2    17    18   am
     3    18    22    1
     4    22    23    1
     5    23    24   ar
     6    24    25   ar
     7    25    26   ar
     8    26    27    1
     9    26    28   ar
    10    28    29   ar
    11    17    19   am
    12    19     1    1
    13     1     2   ar
    14     2     3   ar
    15     3     4   ar
    16     4     7    1
    17     7     8    2
    18     8     9    1
    19     9    10    2
    20    10    11    1
    21    11    12    2
    22    12    13    1
    23    13    14    2
    24    14    15    1
    25     4     5   ar
    26     5     6   ar
    27    29    23   ar
    28     6     1   ar
    29    15     7    1
    30    15    11    1
    31    18    20    1
    32    19    21    1
@<TRIPOS>MOLECULE
*****
 29 32 0 0 0
SMALL
GASTEIGER

@<TRIPOS>ATOM
      1 C          63.1082   86.5376   16.0383 C.ar    1  UNL1        0.0516
      2 C          61.9714   85.5967   16.3075 C.ar    1  UNL1        0.0147
      3 C          61.8767   84.3009   15.5579 C.ar    1  UNL1        0.0010
      4 C          62.9189   83.9459   14.5391 C.ar    1  UNL1       -0.0014
      5 C          64.0557   84.8867   14.2699 C.ar    1  UNL1        0.0010
      6 C          64.1504   86.1825   15.0196 C.ar    1  UNL1        0.0147
      7 C          62.8242   82.6500   13.7895 C.2     1  UNL1        0.0158
      8 C          62.2823   81.4280   14.4698 C.2     1  UNL1        0.0487
      9 C          62.1876   80.1322   13.7203 C.2     1  UNL1        0.2355
     10 N          62.6348   80.0584   12.2904 N.2     1  UNL1       -0.0325
     11 C          63.1767   81.2804   11.6101 C.2     1  UNL1        0.3799
     12 N          63.6906   81.5105   10.2198 N.2     1  UNL1       -0.0106
     13 C          64.1029   82.9485   10.1101 C.2     1  UNL1        0.3351
     14 N          63.8438   83.6072   11.4326 N.2     1  UNL1       -0.2103
     15 C          63.2714   82.5763   12.3597 C.3     1  UNL1        0.2404
     16 O          63.7891   89.0685   14.5786 O.2     1  UNL1       -0.2525
     17 C          63.5433   89.0989   16.0580 C.2     1  UNL1        0.3047
     18 N          63.6380   90.3946   16.8076 N.am    1  UNL1       -0.2846
     19 N          63.2029   87.8333   16.7879 N.am    1  UNL1       -0.2683
     20 H          63.4767   90.4145   17.7786 H       1  UNL1        0.1513
     21 H          63.0416   87.8532   17.7589 H       1  UNL1        0.1564
     22 C          63.9785   91.6602   16.0778 C.3     1  UNL1        0.1177
     23 C          65.3857   91.9071   15.6210 C.ar    1  UNL1       -0.0024
     24 C          66.3408   92.6537   16.5044 C.ar    1  UNL1       -0.0003
     25 C          67.7480   92.9007   16.0477 C.ar    1  UNL1        0.0294
     26 C          68.2002   92.4011   14.7076 C.ar    1  UNL1        0.1401
     27 F          69.6075   92.6481   14.2509 F       1  UNL1       -0.2042
     28 C          67.2452   91.6545   13.8242 C.ar    1  UNL1        0.0294
     29 C          65.8379   91.4075   14.2809 C.ar    1  UNL1       -0.0003
@<TRIPOS>BOND
     1    16    17    2
     2    17    18   am
     3    18    22    1
     4    22    23    1
     5    23    24   ar
     6    24    25   ar
     7    25    26   ar
     8    26    27    1
     9    26    28   ar
    10    28    29   ar
    11    17    19   am
    12    19     1    1
    13     1     2   ar
    14     2     3   ar
    15     3     4   ar
    16     4     7    1
    17     7     8    2
    18     8     9    1
    19     9    10    2
    20    10    11    1
    21    11    12    2
    22    12    13    1
    23    13    14    2
    24    14    15    1
    25     4     5   ar
    26     5     6   ar
    27    29    23   ar
    28     6     1   ar
    29    15     7    1
    30    15    11    1
    31    18    20    1
    32    19    21    1
@<TRIPOS>MOLECULE
*****
 29 32 0 0 0
SMALL
GASTEIGER

@<TRIPOS>ATOM
      1 C          62.6954   89.0491   10.9326 C.ar    1  UNL1        0.0516
      2 C          62.9925   90.5179   10.8651 C.ar    1  UNL1        0.0147
      3 C          63.6252   91.2098   12.0359 C.ar    1  UNL1        0.0010
      4 C          63.9608   90.4329   13.2745 C.ar    1  UNL1       -0.0014
      5 C          63.6638   88.9642   13.3421 C.ar    1  UNL1        0.0010
      6 C          63.0310   88.2723   12.1711 C.ar    1  UNL1        0.0147
      7 C          64.5936   91.1248   14.4453 C.2     1  UNL1        0.0158
      8 C          63.8280   91.2849   15.7252 C.2     1  UNL1        0.0487
      9 C          64.4606   91.9768   16.8961 C.2     1  UNL1        0.2355
     10 N          65.8590   92.5086   16.7871 N.2     1  UNL1       -0.0325
     11 C          66.6246   92.3485   15.5072 C.2     1  UNL1        0.3799
     12 N          68.0083   92.7664   15.1064 N.2     1  UNL1       -0.0106
     13 C          68.2308   92.3327   13.6878 C.2     1  UNL1        0.3351
     14 N          66.9846   91.6468   13.2118 N.2     1  UNL1       -0.2103
     15 C          65.9919   91.6566   14.3363 C.3     1  UNL1        0.2404
     16 O          60.2161   90.1831    9.6807 O.2     1  UNL1       -0.2525
     17 C          60.8230   88.9243    9.1358 C.2     1  UNL1        0.3047
     18 N          60.1903   88.2324    7.9650 N.am    1  UNL1       -0.2846
     19 N          62.0627   88.3573    9.7618 N.am    1  UNL1       -0.2683
     20 H          60.5887   87.4062    7.6073 H       1  UNL1        0.1513
     21 H          62.4611   87.5311    9.4042 H       1  UNL1        0.1564
     22 C          58.9506   88.7994    7.3389 C.3     1  UNL1        0.1177
     23 C          59.0603   89.8723    6.2964 C.ar    1  UNL1       -0.0024
     24 C          60.4012   90.2310    5.7276 C.ar    1  UNL1       -0.0003
     25 C          60.5109   91.3039    4.6851 C.ar    1  UNL1        0.0294
     26 C          59.2799   92.0180    4.2114 C.ar    1  UNL1        0.1401
     27 F          59.3897   93.0909    3.1688 F       1  UNL1       -0.2042
     28 C          57.9391   91.6593    4.7801 C.ar    1  UNL1        0.0294
     29 C          57.8293   90.5864    5.8226 C.ar    1  UNL1       -0.0003
@<TRIPOS>BOND
     1    16    17    2
     2    17    18   am
     3    18    22    1
     4    22    23    1
     5    23    24   ar
     6    24    25   ar
     7    25    26   ar
     8    26    27    1
     9    26    28   ar
    10    28    29   ar
    11    17    19   am
    12    19     1    1
    13     1     2   ar
    14     2     3   ar
    15     3     4   ar
    16     4     7    1
    17     7     8    2
    18     8     9    1
    19     9    10    2
    20    10    11    1
    21    11    12    2
    22    12    13    1
    23    13    14    2
    24    14    15    1
    25     4     5   ar
    26     5     6   ar
    27    29    23   ar
    28     6     1   ar
    29    15     7    1
    30    15    11    1
    31    18    20    1
    32    19    21    1
@<TRIPOS>MOLECULE
*****
 29 32 0 0 0
SMALL
GASTEIGER

@<TRIPOS>ATOM
      1 C          60.8587   88.0006    9.8016 C.ar    1  UNL1        0.0516
      2 C          60.6233   86.6391    9.2176 C.ar    1  UNL1        0.0147
      3 C          61.3245   85.4446    9.7933 C.ar    1  UNL1        0.0010
      4 C          62.2613   85.6115   10.9530 C.ar    1  UNL1       -0.0014
      5 C          62.4967   86.9729   11.5370 C.ar    1  UNL1        0.0010
      6 C          61.7954   88.1675   10.9613 C.ar    1  UNL1        0.0147
      7 C          62.9625   84.4170   11.5286 C.2     1  UNL1        0.0158
      8 C          63.7150   83.4829   10.6279 C.2     1  UNL1        0.0487
      9 C          64.4162   82.2884   11.2035 C.2     1  UNL1        0.2355
     10 N          64.3650   82.0279   12.6799 N.2     1  UNL1       -0.0325
     11 C          63.6125   82.9620   13.5806 C.2     1  UNL1        0.3799
     12 N          63.3879   82.9627   15.0636 N.2     1  UNL1       -0.0106
     13 C          62.5479   84.1577   15.4046 C.2     1  UNL1        0.3351
     14 N          62.2533   84.8955   14.1323 N.2     1  UNL1       -0.2103
     15 C          62.9113   84.1565   13.0049 C.3     1  UNL1        0.2404
     16 O          60.1300   88.0541    6.8920 O.2     1  UNL1       -0.2525
     17 C          59.7931   89.2219    7.7711 C.2     1  UNL1        0.3047
     18 N          59.0919   90.4163    7.1955 N.am    1  UNL1       -0.2846
     19 N          60.1575   89.1950    9.2260 N.am    1  UNL1       -0.2683
     20 H          58.8708   91.1827    7.7726 H       1  UNL1        0.1513
     21 H          59.9365   89.9614    9.8031 H       1  UNL1        0.1564
     22 C          58.7275   90.4432    5.7406 C.3     1  UNL1        0.1177
     23 C          59.5971   91.1768    4.7631 C.ar    1  UNL1       -0.0024
     24 C          61.0583   90.8515    4.6680 C.ar    1  UNL1       -0.0003
     25 C          61.9279   91.5851    3.6906 C.ar    1  UNL1        0.0294
     26 C          61.3364   92.6441    2.8082 C.ar    1  UNL1        0.1401
     27 F          62.2061   93.3777    1.8307 F       1  UNL1       -0.2042
     28 C          59.8752   92.9694    2.9032 C.ar    1  UNL1        0.0294
     29 C          59.0055   92.2358    3.8807 C.ar    1  UNL1       -0.0003
@<TRIPOS>BOND
     1    16    17    2
     2    17    18   am
     3    18    22    1
     4    22    23    1
     5    23    24   ar
     6    24    25   ar
     7    25    26   ar
     8    26    27    1
     9    26    28   ar
    10    28    29   ar
    11    17    19   am
    12    19     1    1
    13     1     2   ar
    14     2     3   ar
    15     3     4   ar
    16     4     7    1
    17     7     8    2
    18     8     9    1
    19     9    10    2
    20    10    11    1
    21    11    12    2
    22    12    13    1
    23    13    14    2
    24    14    15    1
    25     4     5   ar
    26     5     6   ar
    27    29    23   ar
    28     6     1   ar
    29    15     7    1
    30    15    11    1
    31    18    20    1
    32    19    21    1
@<TRIPOS>MOLECULE
*****
 29 32 0 0 0
SMALL
GASTEIGER

@<TRIPOS>ATOM
      1 C          63.4783   87.9968   15.5938 C.ar    1  UNL1        0.0516
      2 C          63.2340   89.2214   16.4248 C.ar    1  UNL1        0.0147
      3 C          63.9401   90.5034   16.0970 C.ar    1  UNL1        0.0010
      4 C          64.8908   90.5610   14.9381 C.ar    1  UNL1       -0.0014
      5 C          65.1353   89.3364   14.1070 C.ar    1  UNL1        0.0010
      6 C          64.4290   88.0543   14.4349 C.ar    1  UNL1        0.0147
      7 C          65.5971   91.8431   14.6103 C.2     1  UNL1        0.0158
      8 C          66.3983   92.5486   15.6640 C.2     1  UNL1        0.0487
      9 C          67.1045   93.8306   15.3362 C.2     1  UNL1        0.2355
     10 N          67.0095   94.4073   13.9547 N.2     1  UNL1       -0.0325
     11 C          66.2083   93.7018   12.9011 C.2     1  UNL1        0.3799
     12 N          65.9344   94.0273   11.4626 N.2     1  UNL1       -0.0106
     13 C          65.0588   92.9464   10.9014 C.2     1  UNL1        0.3351
     14 N          64.7916   91.9528   11.9930 N.2     1  UNL1       -0.2103
     15 C          65.5020   92.4197   13.2288 C.3     1  UNL1        0.2404
     16 O          64.7476   85.3669   14.9062 O.2     1  UNL1       -0.2525
     17 C          63.4067   85.3997   15.5778 C.2     1  UNL1        0.3047
     18 N          62.7005   84.1177   15.9055 N.am    1  UNL1       -0.2846
     19 N          62.7721   86.7147   15.9215 N.am    1  UNL1       -0.2683
     20 H          61.8205   84.1393   16.3463 H       1  UNL1        0.1513
     21 H          61.8921   86.7363   16.3623 H       1  UNL1        0.1564
     22 C          63.3351   82.8027   15.5618 C.3     1  UNL1        0.1177
     23 C          63.2666   82.2814   14.1570 C.ar    1  UNL1       -0.0024
     24 C          62.4937   81.0311   13.8578 C.ar    1  UNL1       -0.0003
     25 C          62.4252   80.5098   12.4531 C.ar    1  UNL1        0.0294
     26 C          63.1295   81.2386   11.3474 C.ar    1  UNL1        0.1401
     27 F          63.0609   80.7172    9.9426 F       1  UNL1       -0.2042
     28 C          63.9024   82.4889   11.6464 C.ar    1  UNL1        0.0294
     29 C          63.9710   83.0103   13.0512 C.ar    1  UNL1       -0.0003
@<TRIPOS>BOND
     1    16    17    2
     2    17    18   am
     3    18    22    1
     4    22    23    1
     5    23    24   ar
     6    24    25   ar
     7    25    26   ar
     8    26    27    1
     9    26    28   ar
    10    28    29   ar
    11    17    19   am
    12    19     1    1
    13     1     2   ar
    14     2     3   ar
    15     3     4   ar
    16     4     7    1
    17     7     8    2
    18     8     9    1
    19     9    10    2
    20    10    11    1
    21    11    12    2
    22    12    13    1
    23    13    14    2
    24    14    15    1
    25     4     5   ar
    26     5     6   ar
    27    29    23   ar
    28     6     1   ar
    29    15     7    1
    30    15    11    1
    31    18    20    1
    32    19    21    1
@<TRIPOS>MOLECULE
*****
 29 32 0 0 0
SMALL
GASTEIGER

@<TRIPOS>ATOM
      1 C          62.8182   88.5531   11.8336 C.ar    1  UNL1        0.0516
      2 C          62.7829   89.4335   10.6196 C.ar    1  UNL1        0.0147
      3 C          63.5174   90.7412   10.6200 C.ar    1  UNL1        0.0010
      4 C          64.2874   91.1687   11.8344 C.ar    1  UNL1       -0.0014
      5 C          64.3227   90.2883   13.0483 C.ar    1  UNL1        0.0010
      6 C          63.5881   88.9805   13.0479 C.ar    1  UNL1        0.0147
      7 C          65.0220   92.4765   11.8347 C.2     1  UNL1        0.0158
      8 C          64.9666   93.3681   10.6297 C.2     1  UNL1        0.0487
      9 C          65.7012   94.6759   10.6301 C.2     1  UNL1        0.2355
     10 N          66.4912   95.0922   11.8354 N.2     1  UNL1       -0.0325
     11 C          66.5466   94.2005   13.0403 C.2     1  UNL1        0.3799
     12 N          67.2377   94.3437   14.3639 N.2     1  UNL1       -0.0106
     13 C          66.9303   93.1243   15.1815 C.2     1  UNL1        0.3351
     14 N          66.0491   92.2275   14.3633 N.2     1  UNL1       -0.2103
     15 C          65.8120   92.8927   13.0400 C.3     1  UNL1        0.2404
     16 O          63.9130   86.2173   13.3650 O.2     1  UNL1       -0.2525
     17 C          62.6310   86.0773   12.5990 C.2     1  UNL1        0.3047
     18 N          61.8964   84.7696   12.5986 N.am    1  UNL1       -0.2846
     19 N          62.0836   87.2453   11.8332 N.am    1  UNL1       -0.2683
     20 H          61.0550   84.6778   12.0958 H       1  UNL1        0.1513
     21 H          61.2422   87.1535   11.3304 H       1  UNL1        0.1564
     22 C          62.4438   83.6016   13.3643 C.3     1  UNL1        0.1177
     23 C          62.5591   82.2597   12.7042 C.ar    1  UNL1       -0.0024
     24 C          62.2027   81.0167   13.4645 C.ar    1  UNL1       -0.0003
     25 C          62.3179   79.6748   12.8045 C.ar    1  UNL1        0.0294
     26 C          62.7895   79.5756   11.3840 C.ar    1  UNL1        0.1401
     27 F          62.9047   78.2336   10.7239 F       1  UNL1       -0.2042
     28 C          63.1459   80.8185   10.6236 C.ar    1  UNL1        0.0294
     29 C          63.0307   82.1605   11.2837 C.ar    1  UNL1       -0.0003
@<TRIPOS>BOND
     1    16    17    2
     2    17    18   am
     3    18    22    1
     4    22    23    1
     5    23    24   ar
     6    24    25   ar
     7    25    26   ar
     8    26    27    1
     9    26    28   ar
    10    28    29   ar
    11    17    19   am
    12    19     1    1
    13     1     2   ar
    14     2     3   ar
    15     3     4   ar
    16     4     7    1
    17     7     8    2
    18     8     9    1
    19     9    10    2
    20    10    11    1
    21    11    12    2
    22    12    13    1
    23    13    14    2
    24    14    15    1
    25     4     5   ar
    26     5     6   ar
    27    29    23   ar
    28     6     1   ar
    29    15     7    1
    30    15    11    1
    31    18    20    1
    32    19    21    1
