@<TRIPOS>MOLECULE
*****
 42 44 0 0 0
SMALL
GASTEIGER

@<TRIPOS>ATOM
      1 C          63.4031   86.9676   16.3297 C.3     1  UNL1        0.2120
      2 O          63.8074   86.7855   14.8967 O.3     1  UNL1       -0.3763
      3 H          63.4732   85.9348   14.5721 H       1  UNL1        0.2107
      4 C          62.9988   87.1497   17.7626 C.3     1  UNL1        0.4226
      5 F          62.5945   87.3317   19.1956 F       1  UNL1       -0.1675
      6 F          63.3516   88.6051   17.6772 F       1  UNL1       -0.1675
      7 F          62.6461   85.6943   17.8480 F       1  UNL1       -0.1675
      8 C          63.2873   88.4467   16.1090 C.3     1  UNL1        0.1269
      9 C          63.8043   90.4904   14.5905 C.2     1  UNL1        0.2502
     10 O          63.8288   91.3810   15.7973 O.2     1  UNL1       -0.2700
     11 N          63.5335   89.0234   14.7463 N.am    1  UNL1       -0.2982
     12 H          63.5174   88.4389   13.9542 H       1  UNL1        0.1498
     13 N          66.0215   92.7649   13.8420 N.pl3   1  UNL1       -0.3424
     14 C          65.0697   92.1125   12.8837 C.ar    1  UNL1        0.1327
     15 C          64.0505   91.0670   13.2278 C.ar    1  UNL1        0.1053
     16 C          63.3208   90.6994   11.9698 C.ar    1  UNL1        0.1278
     17 N          63.8890   91.5176   10.8483 N.ar    1  UNL1       -0.1622
     18 N          64.9699   92.3910   11.4132 N.ar    1  UNL1       -0.2163
     19 H          66.0109   92.5138   14.7939 H       1  UNL1        0.1437
     20 H          66.6568   93.4440   13.5191 H       1  UNL1        0.1437
     21 C          65.8043   93.3707   10.6428 C.ar    1  UNL1        0.0843
     22 C          67.0605   92.9138    9.9622 C.ar    1  UNL1        0.0215
     23 C          67.8951   93.8936    9.1917 C.ar    1  UNL1        0.0312
     24 C          67.4734   95.3303    9.1019 C.ar    1  UNL1        0.1402
     25 F          68.3080   96.3101    8.3315 F       1  UNL1       -0.2042
     26 C          66.2173   95.7872    9.7825 C.ar    1  UNL1        0.0312
     27 C          65.3827   94.8074   10.5530 C.ar    1  UNL1        0.0215
     28 C          63.5190   85.4885   16.5503 C.3     1  UNL1        0.1308
     29 N          63.7134   84.5688   15.3814 N.am    1  UNL1       -0.2703
     30 C          62.5445   84.1945   14.5190 C.2     1  UNL1        0.2536
     31 O          61.1812   84.7399   14.8256 O.2     1  UNL1       -0.2697
     32 C          62.7389   83.2748   13.3501 C.ar    1  UNL1        0.1083
     33 C          63.1999   83.8237   12.0325 C.ar    1  UNL1        0.1467
     34 F          63.4664   85.2923   11.8837 F       1  UNL1       -0.2039
     35 C          63.3943   82.9039   10.8636 C.ar    1  UNL1        0.0299
     36 C          63.1278   81.4354   11.0123 C.ar    1  UNL1        0.0046
     37 C          62.6668   80.8864   12.3300 C.ar    1  UNL1        0.0299
     38 C          62.4723   81.8061   13.4989 C.ar    1  UNL1        0.1467
     39 F          62.0114   81.2572   14.8165 F       1  UNL1       -0.2039
     40 C          65.0767   84.0234   15.0748 C.3     1  UNL1        0.1319
     41 C          66.0848   84.8789   14.3666 C.3     1  UNL1        0.2146
     42 F          66.8142   85.9545   15.1157 F       1  UNL1       -0.2324
@<TRIPOS>BOND
     1    13    14    1
     2    14    15   ar
     3    15     9    1
     4     9    10    2
     5     9    11   am
     6    11     8    1
     7     8     1    1
     8     1     2    1
     9     1    28    1
    10    28    29    1
    11    29    40    1
    12    40    41    1
    13    41    42    1
    14    29    30   am
    15    30    31    2
    16    30    32    1
    17    32    33   ar
    18    33    34    1
    19    33    35   ar
    20    35    36   ar
    21    36    37   ar
    22    37    38   ar
    23    38    39    1
    24     1     4    1
    25     4     5    1
    26     4     6    1
    27     4     7    1
    28    15    16   ar
    29    16    17   ar
    30    17    18   ar
    31    18    21    1
    32    21    22   ar
    33    22    23   ar
    34    23    24   ar
    35    24    25    1
    36    24    26   ar
    37    26    27   ar
    38    18    14   ar
    39    27    21   ar
    40    38    32   ar
    41    13    19    1
    42    13    20    1
    43    11    12    1
    44     2     3    1
@<TRIPOS>MOLECULE
*****
 42 44 0 0 0
SMALL
GASTEIGER

@<TRIPOS>ATOM
      1 C          63.3564   86.9637   16.3862 C.3     1  UNL1        0.2120
      2 O          63.7360   86.7668   14.9485 O.3     1  UNL1       -0.3763
      3 H          63.3912   85.9155   14.6366 H       1  UNL1        0.2107
      4 C          62.9767   87.1606   17.8239 C.3     1  UNL1        0.4226
      5 F          62.5970   87.3574   19.2617 F       1  UNL1       -0.1675
      6 F          63.3509   88.6097   17.7242 F       1  UNL1       -0.1675
      7 F          62.6026   85.7114   17.9235 F       1  UNL1       -0.1675
      8 C          63.2463   88.4416   16.1547 C.3     1  UNL1        0.1269
      9 C          63.8013   90.4665   14.6244 C.2     1  UNL1        0.2502
     10 O          63.8591   91.3601   15.8277 O.2     1  UNL1       -0.2700
     11 N          63.4949   89.0073   14.7878 N.am    1  UNL1       -0.2982
     12 H          63.4569   88.4208   13.9980 H       1  UNL1        0.1498
     13 N          66.0015   92.7541   13.8661 N.pl3   1  UNL1       -0.3424
     14 C          65.0612   92.0836   12.9089 C.ar    1  UNL1        0.1327
     15 C          64.0498   91.0321   13.2575 C.ar    1  UNL1        0.1053
     16 C          63.3306   90.6455   11.9992 C.ar    1  UNL1        0.1278
     17 N          63.8975   91.4581   10.8729 N.ar    1  UNL1       -0.1622
     18 N          64.9671   92.3469   11.4352 N.ar    1  UNL1       -0.2163
     19 H          65.9879   92.5122   14.8203 H       1  UNL1        0.1437
     20 H          66.6324   93.4360   13.5401 H       1  UNL1        0.1437
     21 C          65.7968   93.3269   10.6600 C.ar    1  UNL1        0.0843
     22 C          65.3642   94.7594   10.5568 C.ar    1  UNL1        0.0215
     23 C          66.1939   95.7395    9.7815 C.ar    1  UNL1        0.0312
     24 C          67.4563   95.2870    9.1094 C.ar    1  UNL1        0.1402
     25 F          68.2861   96.2670    8.3341 F       1  UNL1       -0.2042
     26 C          67.8889   93.8544    9.2126 C.ar    1  UNL1        0.0312
     27 C          67.0591   92.8744    9.9879 C.ar    1  UNL1        0.0215
     28 C          63.4664   85.4858   16.6176 C.3     1  UNL1        0.1308
     29 N          63.6647   84.5575   15.4562 N.am    1  UNL1       -0.2703
     30 C          62.5070   84.2093   14.5682 C.2     1  UNL1        0.2536
     31 O          61.1511   84.7894   14.8416 O.2     1  UNL1       -0.2697
     32 C          62.7053   83.2810   13.4068 C.ar    1  UNL1        0.1083
     33 C          62.4324   81.8144   13.5637 C.ar    1  UNL1        0.1467
     34 F          61.9612   81.2761   14.8822 F       1  UNL1       -0.2039
     35 C          62.6307   80.8861   12.4023 C.ar    1  UNL1        0.0299
     36 C          63.1019   81.4243   11.0839 C.ar    1  UNL1        0.0046
     37 C          63.3749   82.8909   10.9269 C.ar    1  UNL1        0.0299
     38 C          63.1765   83.8193   12.0883 C.ar    1  UNL1        0.1467
     39 F          63.4494   85.2858   11.9313 F       1  UNL1       -0.2039
     40 C          65.0207   83.9773   15.1828 C.3     1  UNL1        0.1319
     41 C          66.0442   84.7817   14.4377 C.3     1  UNL1        0.2146
     42 F          66.5979   86.0372   15.0437 F       1  UNL1       -0.2324
@<TRIPOS>BOND
     1    13    14    1
     2    14    15   ar
     3    15     9    1
     4     9    10    2
     5     9    11   am
     6    11     8    1
     7     8     1    1
     8     1     2    1
     9     1    28    1
    10    28    29    1
    11    29    40    1
    12    40    41    1
    13    41    42    1
    14    29    30   am
    15    30    31    2
    16    30    32    1
    17    32    33   ar
    18    33    34    1
    19    33    35   ar
    20    35    36   ar
    21    36    37   ar
    22    37    38   ar
    23    38    39    1
    24     1     4    1
    25     4     5    1
    26     4     6    1
    27     4     7    1
    28    15    16   ar
    29    16    17   ar
    30    17    18   ar
    31    18    21    1
    32    21    22   ar
    33    22    23   ar
    34    23    24   ar
    35    24    25    1
    36    24    26   ar
    37    26    27   ar
    38    18    14   ar
    39    27    21   ar
    40    38    32   ar
    41    13    19    1
    42    13    20    1
    43    11    12    1
    44     2     3    1
@<TRIPOS>MOLECULE
*****
 42 44 0 0 0
SMALL
GASTEIGER

@<TRIPOS>ATOM
      1 C          60.9897   87.8668    9.1597 C.3     1  UNL1        0.2120
      2 O          62.3001   87.9011    9.8889 O.3     1  UNL1       -0.3763
      3 H          62.8880   87.2184    9.5295 H       1  UNL1        0.2107
      4 C          59.6794   87.8326    8.4305 C.3     1  UNL1        0.4226
      5 F          58.3690   87.7984    7.7012 F       1  UNL1       -0.1675
      6 F          59.6149   86.3456    8.6162 F       1  UNL1       -0.1675
      7 F          59.7439   89.3196    8.2448 F       1  UNL1       -0.1675
      8 C          60.8609   89.3525    9.3214 C.3     1  UNL1        0.1269
      9 C          62.4206   90.3554   11.1412 C.2     1  UNL1        0.2502
     10 O          61.5834   89.7178   12.2101 O.2     1  UNL1       -0.2700
     11 N          62.0594   90.1728    9.6969 N.am    1  UNL1       -0.2982
     12 H          62.6088   90.5913    8.9954 H       1  UNL1        0.1498
     13 N          64.1893   90.0325   13.8646 N.pl3   1  UNL1       -0.3424
     14 C          64.4321   91.0272   12.7685 C.ar    1  UNL1        0.1327
     15 C          63.6190   91.1757   11.5166 C.ar    1  UNL1        0.1053
     16 C          64.2148   92.2884   10.7062 C.ar    1  UNL1        0.1278
     17 N          65.3962   92.8277   11.4571 N.ar    1  UNL1       -0.1622
     18 N          65.5304   92.0482   12.7317 N.ar    1  UNL1       -0.2163
     19 H          63.4383   89.3995   13.7974 H       1  UNL1        0.1437
     20 H          64.7811   90.0125   14.6511 H       1  UNL1        0.1437
     21 C          66.5787   92.2537   13.7845 C.ar    1  UNL1        0.0843
     22 C          68.0145   91.9399   13.4845 C.ar    1  UNL1        0.0215
     23 C          69.0630   92.1453   14.5373 C.ar    1  UNL1        0.0312
     24 C          68.6756   92.6646   15.8903 C.ar    1  UNL1        0.1402
     25 F          69.7241   92.8700   16.9432 F       1  UNL1       -0.2042
     26 C          67.2398   92.9783   16.1903 C.ar    1  UNL1        0.0312
     27 C          66.1914   92.7728   15.1374 C.ar    1  UNL1        0.0215
     28 C          61.1185   86.3812    8.9980 C.3     1  UNL1        0.1308
     29 N          62.0263   85.6039    9.9045 N.am    1  UNL1       -0.2703
     30 C          61.8689   85.7084   11.3926 C.2     1  UNL1        0.2536
     31 O          60.8037   86.5900   11.9741 O.2     1  UNL1       -0.2697
     32 C          62.7766   84.9312   12.2992 C.ar    1  UNL1        0.1083
     33 C          62.7352   83.4318   12.2962 C.ar    1  UNL1        0.1467
     34 F          61.7859   82.7095   11.3865 F       1  UNL1       -0.2039
     35 C          63.6429   82.6545   13.2027 C.ar    1  UNL1        0.0299
     36 C          64.5921   83.3767   14.1124 C.ar    1  UNL1        0.0046
     37 C          64.6336   84.8762   14.1154 C.ar    1  UNL1        0.0299
     38 C          63.7259   85.6534   13.2089 C.ar    1  UNL1        0.1467
     39 F          63.7673   87.1528   13.2119 F       1  UNL1       -0.2039
     40 C          63.0914   84.7223    9.3231 C.3     1  UNL1        0.1319
     41 C          63.4185   84.8054    7.8616 C.3     1  UNL1        0.2146
     42 F          62.3950   84.4066    6.8401 F       1  UNL1       -0.2324
@<TRIPOS>BOND
     1    13    14    1
     2    14    15   ar
     3    15     9    1
     4     9    10    2
     5     9    11   am
     6    11     8    1
     7     8     1    1
     8     1     2    1
     9     1    28    1
    10    28    29    1
    11    29    40    1
    12    40    41    1
    13    41    42    1
    14    29    30   am
    15    30    31    2
    16    30    32    1
    17    32    33   ar
    18    33    34    1
    19    33    35   ar
    20    35    36   ar
    21    36    37   ar
    22    37    38   ar
    23    38    39    1
    24     1     4    1
    25     4     5    1
    26     4     6    1
    27     4     7    1
    28    15    16   ar
    29    16    17   ar
    30    17    18   ar
    31    18    21    1
    32    21    22   ar
    33    22    23   ar
    34    23    24   ar
    35    24    25    1
    36    24    26   ar
    37    26    27   ar
    38    18    14   ar
    39    27    21   ar
    40    38    32   ar
    41    13    19    1
    42    13    20    1
    43    11    12    1
    44     2     3    1
@<TRIPOS>MOLECULE
*****
 42 44 0 0 0
SMALL
GASTEIGER

@<TRIPOS>ATOM
      1 C          65.8918   92.4681   13.8445 C.3     1  UNL1        0.2120
      2 O          64.7771   92.7606   12.8845 O.3     1  UNL1       -0.3763
      3 H          65.1473   93.0810   12.0471 H       1  UNL1        0.2107
      4 C          67.0065   92.1756   14.8046 C.3     1  UNL1        0.4226
      5 F          68.1213   91.8831   15.7647 F       1  UNL1       -0.1675
      6 F          66.0133   92.0605   15.9227 F       1  UNL1       -0.1675
      7 F          67.9997   92.2907   13.6865 F       1  UNL1       -0.1675
      8 C          65.0913   91.3434   14.4313 C.3     1  UNL1        0.1269
      9 C          63.9694   89.0152   14.1646 C.2     1  UNL1        0.2502
     10 O          63.7913   88.9307   15.6516 O.2     1  UNL1       -0.2700
     11 N          64.6194   90.2215   13.5544 N.am    1  UNL1       -0.2982
     12 H          64.7363   90.2770   12.5785 H       1  UNL1        0.1498
     13 N          64.3485   85.8285   14.7563 N.pl3   1  UNL1       -0.3424
     14 C          63.6718   86.4286   13.5597 C.ar    1  UNL1        0.1327
     15 C          63.4975   87.8935   13.2877 C.ar    1  UNL1        0.1053
     16 C          62.7685   88.0395   11.9850 C.ar    1  UNL1        0.1278
     17 N          62.4922   86.6649   11.4517 N.ar    1  UNL1       -0.1622
     18 N          63.0504   85.6693   12.4250 N.ar    1  UNL1       -0.2163
     19 H          64.7276   86.4128   15.4520 H       1  UNL1        0.1437
     20 H          64.4136   84.8502   14.8459 H       1  UNL1        0.1437
     21 C          62.9968   84.1767   12.2877 C.ar    1  UNL1        0.0843
     22 C          62.4648   83.3387   13.4123 C.ar    1  UNL1        0.0215
     23 C          62.4112   81.8459   13.2751 C.ar    1  UNL1        0.0312
     24 C          62.8895   81.1911   12.0131 C.ar    1  UNL1        0.1402
     25 F          62.8359   79.6984   11.8758 F       1  UNL1       -0.2042
     26 C          63.4215   82.0291   10.8885 C.ar    1  UNL1        0.0312
     27 C          63.4751   83.5219   11.0258 C.ar    1  UNL1        0.0215
     28 C          66.6922   93.5928   13.2578 C.3     1  UNL1        0.1308
     29 N          66.5217   93.9610   11.8138 N.am    1  UNL1       -0.2703
     30 C          66.3456   95.3983   11.4220 C.2     1  UNL1        0.2536
     31 O          66.3399   96.4672   12.4743 O.2     1  UNL1       -0.2697
     32 C          66.1751   95.7665    9.9780 C.ar    1  UNL1        0.1083
     33 C          64.9388   96.4874    9.5287 C.ar    1  UNL1        0.1467
     34 F          63.8729   96.8400   10.5235 F       1  UNL1       -0.2039
     35 C          64.7683   96.8557    8.0846 C.ar    1  UNL1        0.0299
     36 C          65.8341   96.5031    7.0898 C.ar    1  UNL1        0.0046
     37 C          67.0705   95.7822    7.5391 C.ar    1  UNL1        0.0299
     38 C          67.2410   95.4139    8.9831 C.ar    1  UNL1        0.1467
     39 F          68.4773   94.6930    9.4324 F       1  UNL1       -0.2039
     40 C          66.5274   92.8921   10.7614 C.3     1  UNL1        0.1319
     41 C          67.7709   92.0909   10.5130 C.3     1  UNL1        0.2146
     42 F          68.1552   91.7178    9.1118 F       1  UNL1       -0.2324
@<TRIPOS>BOND
     1    13    14    1
     2    14    15   ar
     3    15     9    1
     4     9    10    2
     5     9    11   am
     6    11     8    1
     7     8     1    1
     8     1     2    1
     9     1    28    1
    10    28    29    1
    11    29    40    1
    12    40    41    1
    13    41    42    1
    14    29    30   am
    15    30    31    2
    16    30    32    1
    17    32    33   ar
    18    33    34    1
    19    33    35   ar
    20    35    36   ar
    21    36    37   ar
    22    37    38   ar
    23    38    39    1
    24     1     4    1
    25     4     5    1
    26     4     6    1
    27     4     7    1
    28    15    16   ar
    29    16    17   ar
    30    17    18   ar
    31    18    21    1
    32    21    22   ar
    33    22    23   ar
    34    23    24   ar
    35    24    25    1
    36    24    26   ar
    37    26    27   ar
    38    18    14   ar
    39    27    21   ar
    40    38    32   ar
    41    13    19    1
    42    13    20    1
    43    11    12    1
    44     2     3    1
@<TRIPOS>MOLECULE
*****
 42 44 0 0 0
SMALL
GASTEIGER

@<TRIPOS>ATOM
      1 C          61.0057   87.8698    9.1437 C.3     1  UNL1        0.2120
      2 O          62.3479   87.9154    9.8117 O.3     1  UNL1       -0.3763
      3 H          62.9250   87.2389    9.4243 H       1  UNL1        0.2107
      4 C          59.6635   87.8241    8.4756 C.3     1  UNL1        0.4226
      5 F          58.3212   87.7785    7.8075 F       1  UNL1       -0.1675
      6 F          59.5548   86.3623    8.7938 F       1  UNL1       -0.1675
      7 F          59.7721   89.2859    8.1574 F       1  UNL1       -0.1675
      8 C          60.8705   89.3539    9.3139 C.3     1  UNL1        0.1269
      9 C          62.4558   90.3702   11.1039 C.2     1  UNL1        0.2502
     10 O          61.6396   89.7326   12.1888 O.2     1  UNL1       -0.2700
     11 N          62.0713   90.1809    9.6664 N.am    1  UNL1       -0.2982
     12 H          62.6070   90.5994    8.9543 H       1  UNL1        0.1498
     13 N          64.2401   90.0997   13.8228 N.pl3   1  UNL1       -0.3424
     14 C          64.4768   91.0729   12.7061 C.ar    1  UNL1        0.1327
     15 C          63.6565   91.1972   11.4563 C.ar    1  UNL1        0.1053
     16 C          64.2480   92.2937   10.6209 C.ar    1  UNL1        0.1278
     17 N          65.4338   92.8471   11.3544 N.ar    1  UNL1       -0.1622
     18 N          65.5751   92.0925   12.6431 N.ar    1  UNL1       -0.2163
     19 H          63.4885   89.4659   13.7723 H       1  UNL1        0.1437
     20 H          64.8364   90.0949   14.6061 H       1  UNL1        0.1437
     21 C          66.6296   92.3180   13.6857 C.ar    1  UNL1        0.0843
     22 C          66.2527   92.8804   15.0242 C.ar    1  UNL1        0.0215
     23 C          67.3072   93.1060   16.0669 C.ar    1  UNL1        0.0312
     24 C          68.7386   92.7691   15.7710 C.ar    1  UNL1        0.1402
     25 F          69.7932   92.9947   16.8137 F       1  UNL1       -0.2042
     26 C          69.1155   92.2067   14.4325 C.ar    1  UNL1        0.0312
     27 C          68.0610   91.9812   13.3898 C.ar    1  UNL1        0.0215
     28 C          61.1409   86.3856    8.9734 C.3     1  UNL1        0.1308
     29 N          62.0549   85.6077    9.8730 N.am    1  UNL1       -0.2703
     30 C          61.8910   85.6905   11.3618 C.2     1  UNL1        0.2536
     31 O          60.8130   86.5513   11.9508 O.2     1  UNL1       -0.2697
     32 C          62.8050   84.9126   12.2614 C.ar    1  UNL1        0.1083
     33 C          63.7342   85.6342   13.1918 C.ar    1  UNL1        0.1467
     34 F          63.7494   87.1338   13.2227 F       1  UNL1       -0.2039
     35 C          64.6483   84.8562   14.0914 C.ar    1  UNL1        0.0299
     36 C          64.6331   83.3567   14.0606 C.ar    1  UNL1        0.0046
     37 C          63.7039   82.6350   13.1302 C.ar    1  UNL1        0.0299
     38 C          62.7898   83.4129   12.2305 C.ar    1  UNL1        0.1467
     39 F          61.8606   82.6913   11.3001 F       1  UNL1       -0.2039
     40 C          63.1329   84.7469    9.2839 C.3     1  UNL1        0.1319
     41 C          63.4667   84.8561    7.8257 C.3     1  UNL1        0.2146
     42 F          62.4459   84.4810    6.7925 F       1  UNL1       -0.2324
@<TRIPOS>BOND
     1    13    14    1
     2    14    15   ar
     3    15     9    1
     4     9    10    2
     5     9    11   am
     6    11     8    1
     7     8     1    1
     8     1     2    1
     9     1    28    1
    10    28    29    1
    11    29    40    1
    12    40    41    1
    13    41    42    1
    14    29    30   am
    15    30    31    2
    16    30    32    1
    17    32    33   ar
    18    33    34    1
    19    33    35   ar
    20    35    36   ar
    21    36    37   ar
    22    37    38   ar
    23    38    39    1
    24     1     4    1
    25     4     5    1
    26     4     6    1
    27     4     7    1
    28    15    16   ar
    29    16    17   ar
    30    17    18   ar
    31    18    21    1
    32    21    22   ar
    33    22    23   ar
    34    23    24   ar
    35    24    25    1
    36    24    26   ar
    37    26    27   ar
    38    18    14   ar
    39    27    21   ar
    40    38    32   ar
    41    13    19    1
    42    13    20    1
    43    11    12    1
    44     2     3    1
@<TRIPOS>MOLECULE
*****
 42 44 0 0 0
SMALL
GASTEIGER

@<TRIPOS>ATOM
      1 C          63.6459   87.0934   15.9637 C.3     1  UNL1        0.2120
      2 O          64.2080   87.1351   14.5736 O.3     1  UNL1       -0.3763
      3 H          64.0096   86.3013   14.1195 H       1  UNL1        0.2107
      4 C          63.0838   87.0517   17.3537 C.3     1  UNL1        0.4226
      5 F          62.5217   87.0099   18.7438 F       1  UNL1       -0.1675
      6 F          62.4178   88.3760   17.1241 F       1  UNL1       -0.1675
      7 F          63.7498   85.7274   17.5832 F       1  UNL1       -0.1675
      8 C          63.3796   88.5682   15.9002 C.3     1  UNL1        0.1269
      9 C          64.3500   90.9372   15.4571 C.2     1  UNL1        0.2502
     10 O          63.4421   91.5055   16.5072 O.2     1  UNL1       -0.2700
     11 N          64.3188   89.4686   15.1536 N.am    1  UNL1       -0.2982
     12 H          64.9147   89.0955   14.4645 H       1  UNL1        0.1498
     13 N          64.2203   91.6252   12.2698 N.pl3   1  UNL1       -0.3424
     14 C          65.2296   92.1537   13.2455 C.ar    1  UNL1        0.1327
     15 C          65.2892   91.8374   14.7106 C.ar    1  UNL1        0.1053
     16 C          66.4530   92.5795   15.2980 C.ar    1  UNL1        0.1278
     17 N          67.1126   93.3545   14.1959 N.ar    1  UNL1       -0.1622
     18 N          66.3565   93.0913   12.9274 N.ar    1  UNL1       -0.2163
     19 H          63.5142   91.0113   12.5761 H       1  UNL1        0.1437
     20 H          64.2640   91.8922   11.3232 H       1  UNL1        0.1437
     21 C          66.6719   93.6649   11.5778 C.ar    1  UNL1        0.0843
     22 C          66.3111   95.0867   11.2643 C.ar    1  UNL1        0.0215
     23 C          66.6264   95.6604    9.9147 C.ar    1  UNL1        0.0312
     24 C          67.3027   94.8122    8.8786 C.ar    1  UNL1        0.1402
     25 F          67.6181   95.3859    7.5290 F       1  UNL1       -0.2042
     26 C          67.6635   93.3904    9.1922 C.ar    1  UNL1        0.0312
     27 C          67.3481   92.8167   10.5418 C.ar    1  UNL1        0.0215
     28 C          63.9122   85.6187   16.0271 C.3     1  UNL1        0.1308
     29 N          63.4922   84.7312   14.8931 N.am    1  UNL1       -0.2703
     30 C          64.5017   84.2820   13.8786 C.2     1  UNL1        0.2536
     31 O          65.9312   84.7202   13.9982 O.2     1  UNL1       -0.2697
     32 C          64.0816   83.3945   12.7446 C.ar    1  UNL1        0.1083
     33 C          64.1494   81.9036   12.8943 C.ar    1  UNL1        0.1467
     34 F          64.6372   81.3000   14.1780 F       1  UNL1       -0.2039
     35 C          63.7293   81.0161   11.7603 C.ar    1  UNL1        0.0299
     36 C          63.2415   81.6196   10.4766 C.ar    1  UNL1        0.0046
     37 C          63.1737   83.1106   10.3269 C.ar    1  UNL1        0.0299
     38 C          63.5938   83.9981   11.4609 C.ar    1  UNL1        0.1467
     39 F          63.5260   85.4890   11.3113 F       1  UNL1       -0.2039
     40 C          62.0626   84.2929   14.7735 C.3     1  UNL1        0.1319
     41 C          61.6776   82.8863   15.1242 C.3     1  UNL1        0.2146
     42 F          61.2634   81.9308   14.0446 F       1  UNL1       -0.2324
@<TRIPOS>BOND
     1    13    14    1
     2    14    15   ar
     3    15     9    1
     4     9    10    2
     5     9    11   am
     6    11     8    1
     7     8     1    1
     8     1     2    1
     9     1    28    1
    10    28    29    1
    11    29    40    1
    12    40    41    1
    13    41    42    1
    14    29    30   am
    15    30    31    2
    16    30    32    1
    17    32    33   ar
    18    33    34    1
    19    33    35   ar
    20    35    36   ar
    21    36    37   ar
    22    37    38   ar
    23    38    39    1
    24     1     4    1
    25     4     5    1
    26     4     6    1
    27     4     7    1
    28    15    16   ar
    29    16    17   ar
    30    17    18   ar
    31    18    21    1
    32    21    22   ar
    33    22    23   ar
    34    23    24   ar
    35    24    25    1
    36    24    26   ar
    37    26    27   ar
    38    18    14   ar
    39    27    21   ar
    40    38    32   ar
    41    13    19    1
    42    13    20    1
    43    11    12    1
    44     2     3    1
@<TRIPOS>MOLECULE
*****
 42 44 0 0 0
SMALL
GASTEIGER

@<TRIPOS>ATOM
      1 C          63.8449   90.7238   14.4329 C.3     1  UNL1        0.2120
      2 O          62.6830   90.1455   13.6810 O.3     1  UNL1       -0.3763
      3 H          62.7156   90.4416   12.7579 H       1  UNL1        0.2107
      4 C          65.0069   91.3020   15.1848 C.3     1  UNL1        0.4226
      5 F          66.1690   91.8803   15.9368 F       1  UNL1       -0.1675
      6 F          64.0585   91.9919   16.1200 F       1  UNL1       -0.1675
      7 F          65.9553   90.6122   14.2497 F       1  UNL1       -0.1675
      8 C          63.9090   89.4896   15.2830 C.3     1  UNL1        0.1269
      9 C          63.9125   86.8922   15.3436 C.2     1  UNL1        0.2502
     10 O          63.1399   86.9212   16.6290 O.2     1  UNL1       -0.2700
     11 N          64.2970   88.1764   14.6706 N.am    1  UNL1       -0.2982
     12 H          64.8041   88.1574   13.8269 H       1  UNL1        0.1498
     13 N          62.2529   85.2861   13.0380 N.pl3   1  UNL1       -0.3424
     14 C          63.5376   84.8408   13.6713 C.ar    1  UNL1        0.1327
     15 C          64.3005   85.5791   14.7311 C.ar    1  UNL1        0.1053
     16 C          65.5194   84.7736   15.0709 C.ar    1  UNL1        0.1278
     17 N          65.5100   83.5375   14.2211 N.ar    1  UNL1       -0.1622
     18 N          64.2851   83.5791   13.3562 N.ar    1  UNL1       -0.2163
     19 H          61.8367   86.1348   13.3132 H       1  UNL1        0.1437
     20 H          61.8259   84.7297   12.3472 H       1  UNL1        0.1437
     21 C          63.8791   82.5412   12.3523 C.ar    1  UNL1        0.0843
     22 C          64.1451   82.7645   10.8931 C.ar    1  UNL1        0.0215
     23 C          63.7391   81.7266    9.8891 C.ar    1  UNL1        0.0312
     24 C          63.0670   80.4653   10.3445 C.ar    1  UNL1        0.1402
     25 F          62.6610   79.4273    9.3406 F       1  UNL1       -0.2042
     26 C          62.8010   80.2419   11.8037 C.ar    1  UNL1        0.0312
     27 C          63.2070   81.2798   12.8076 C.ar    1  UNL1        0.0215
     28 C          63.7808   91.9580   13.5829 C.3     1  UNL1        0.1308
     29 N          64.6500   92.0766   12.3661 N.am    1  UNL1       -0.2703
     30 C          65.7629   93.0819   12.3346 C.2     1  UNL1        0.2536
     31 O          66.0066   93.9685   13.5197 O.2     1  UNL1       -0.2697
     32 C          66.6321   93.2005   11.1178 C.ar    1  UNL1        0.1083
     33 C          66.3176   94.2251   10.0685 C.ar    1  UNL1        0.1467
     34 F          65.1339   95.1312   10.2358 F       1  UNL1       -0.2039
     35 C          67.1868   94.3438    8.8517 C.ar    1  UNL1        0.0299
     36 C          68.3705   93.4378    8.6844 C.ar    1  UNL1        0.0046
     37 C          68.6851   92.4131    9.7338 C.ar    1  UNL1        0.0299
     38 C          67.8159   92.2945   10.9505 C.ar    1  UNL1        0.1467
     39 F          68.1304   91.2699   11.9999 F       1  UNL1       -0.2039
     40 C          64.4064   91.1900   11.1810 C.3     1  UNL1        0.1319
     41 C          63.1212   91.2982   10.4151 C.3     1  UNL1        0.2146
     42 F          62.4483   90.0602    9.9005 F       1  UNL1       -0.2324
@<TRIPOS>BOND
     1    13    14    1
     2    14    15   ar
     3    15     9    1
     4     9    10    2
     5     9    11   am
     6    11     8    1
     7     8     1    1
     8     1     2    1
     9     1    28    1
    10    28    29    1
    11    29    40    1
    12    40    41    1
    13    41    42    1
    14    29    30   am
    15    30    31    2
    16    30    32    1
    17    32    33   ar
    18    33    34    1
    19    33    35   ar
    20    35    36   ar
    21    36    37   ar
    22    37    38   ar
    23    38    39    1
    24     1     4    1
    25     4     5    1
    26     4     6    1
    27     4     7    1
    28    15    16   ar
    29    16    17   ar
    30    17    18   ar
    31    18    21    1
    32    21    22   ar
    33    22    23   ar
    34    23    24   ar
    35    24    25    1
    36    24    26   ar
    37    26    27   ar
    38    18    14   ar
    39    27    21   ar
    40    38    32   ar
    41    13    19    1
    42    13    20    1
    43    11    12    1
    44     2     3    1
@<TRIPOS>MOLECULE
*****
 42 44 0 0 0
SMALL
GASTEIGER

@<TRIPOS>ATOM
      1 C          62.9656   84.2627   15.3576 C.3     1  UNL1        0.2120
      2 O          61.6501   84.8889   15.7143 O.3     1  UNL1       -0.3763
      3 H          60.9582   84.2090   15.7160 H       1  UNL1        0.2107
      4 C          64.2811   83.6366   15.0008 C.3     1  UNL1        0.4226
      5 F          65.5966   83.0103   14.6441 F       1  UNL1       -0.1675
      6 F          64.7878   84.9682   14.5319 F       1  UNL1       -0.1675
      7 F          63.7744   82.3049   15.4698 F       1  UNL1       -0.1675
      8 C          63.6718   85.2349   16.2553 C.3     1  UNL1        0.1269
      9 C          63.2354   87.7961   16.2509 C.2     1  UNL1        0.2502
     10 O          62.1275   87.6091   17.2446 O.2     1  UNL1       -0.2700
     11 N          64.0076   86.6091   15.7563 N.am    1  UNL1       -0.2982
     12 H          64.7348   86.7319   15.1040 H       1  UNL1        0.1498
     13 N          64.2418   88.5503   13.2396 N.pl3   1  UNL1       -0.3424
     14 C          64.0339   89.5169   14.3676 C.ar    1  UNL1        0.1327
     15 C          63.5712   89.1702   15.7518 C.ar    1  UNL1        0.1053
     16 C          63.5034   90.4389   16.5492 C.ar    1  UNL1        0.1278
     17 N          63.9241   91.5697   15.6578 N.ar    1  UNL1       -0.1622
     18 N          64.2519   90.9998   14.3095 N.ar    1  UNL1       -0.2163
     19 H          64.0709   87.5904   13.3761 H       1  UNL1        0.1437
     20 H          64.5492   88.8758   12.3628 H       1  UNL1        0.1437
     21 C          64.7163   91.7764   13.1133 C.ar    1  UNL1        0.0843
     22 C          65.8113   92.7915   13.2569 C.ar    1  UNL1        0.0215
     23 C          66.2757   93.5683   12.0607 C.ar    1  UNL1        0.0312
     24 C          65.6450   93.3298   10.7207 C.ar    1  UNL1        0.1402
     25 F          66.1094   94.1066    9.5244 F       1  UNL1       -0.2042
     26 C          64.5500   92.3148   10.5770 C.ar    1  UNL1        0.0312
     27 C          64.0857   91.5381   11.7733 C.ar    1  UNL1        0.0215
     28 C          62.2594   83.2905   14.4598 C.3     1  UNL1        0.1308
     29 N          62.3544   83.4398   12.9703 N.am    1  UNL1       -0.2703
     30 C          62.4684   84.8049   12.3591 C.2     1  UNL1        0.2536
     31 O          62.4874   86.0207   13.2374 O.2     1  UNL1       -0.2697
     32 C          62.5635   84.9542   10.8696 C.ar    1  UNL1        0.1083
     33 C          63.6414   84.2379   10.1113 C.ar    1  UNL1        0.1467
     34 F          64.6243   83.3723   10.8425 F       1  UNL1       -0.2039
     35 C          63.7364   84.3872    8.6218 C.ar    1  UNL1        0.0299
     36 C          62.7536   85.2527    7.8905 C.ar    1  UNL1        0.0046
     37 C          61.6756   85.9691    8.6488 C.ar    1  UNL1        0.0299
     38 C          61.5806   85.8198   10.1383 C.ar    1  UNL1        0.1467
     39 F          60.5027   86.5361   10.8966 F       1  UNL1       -0.2039
     40 C          62.3355   82.2240   12.0920 C.3     1  UNL1        0.1319
     41 C          62.6894   80.8821   12.6611 C.3     1  UNL1        0.2146
     42 F          61.6899   80.1319   13.4906 F       1  UNL1       -0.2324
@<TRIPOS>BOND
     1    13    14    1
     2    14    15   ar
     3    15     9    1
     4     9    10    2
     5     9    11   am
     6    11     8    1
     7     8     1    1
     8     1     2    1
     9     1    28    1
    10    28    29    1
    11    29    40    1
    12    40    41    1
    13    41    42    1
    14    29    30   am
    15    30    31    2
    16    30    32    1
    17    32    33   ar
    18    33    34    1
    19    33    35   ar
    20    35    36   ar
    21    36    37   ar
    22    37    38   ar
    23    38    39    1
    24     1     4    1
    25     4     5    1
    26     4     6    1
    27     4     7    1
    28    15    16   ar
    29    16    17   ar
    30    17    18   ar
    31    18    21    1
    32    21    22   ar
    33    22    23   ar
    34    23    24   ar
    35    24    25    1
    36    24    26   ar
    37    26    27   ar
    38    18    14   ar
    39    27    21   ar
    40    38    32   ar
    41    13    19    1
    42    13    20    1
    43    11    12    1
    44     2     3    1
@<TRIPOS>MOLECULE
*****
 42 44 0 0 0
SMALL
GASTEIGER

@<TRIPOS>ATOM
      1 C          63.6700   90.5702   14.2194 C.3     1  UNL1        0.2120
      2 O          63.8047   91.6410   15.2612 O.3     1  UNL1       -0.3763
      3 H          63.1799   92.3580   15.0705 H       1  UNL1        0.2107
      4 C          63.5354   89.4995   13.1776 C.3     1  UNL1        0.4226
      5 F          63.4006   88.4287   12.1358 F       1  UNL1       -0.1675
      6 F          65.0163   89.2665   13.2256 F       1  UNL1       -0.1675
      7 F          62.0544   89.7325   13.1296 F       1  UNL1       -0.1675
      8 C          63.9982   89.5286   15.2476 C.3     1  UNL1        0.1269
      9 C          63.5882   87.0002   15.6825 C.2     1  UNL1        0.2502
     10 O          62.8424   87.3374   16.9395 O.2     1  UNL1       -0.2700
     11 N          64.1661   88.0957   14.8366 N.am    1  UNL1       -0.2982
     12 H          64.6556   87.8744   14.0116 H       1  UNL1        0.1498
     13 N          62.7834   85.7284   12.7870 N.pl3   1  UNL1       -0.3424
     14 C          63.3862   84.9828   13.9405 C.ar    1  UNL1        0.1327
     15 C          63.7561   85.5674   15.2715 C.ar    1  UNL1        0.1053
     16 C          64.3235   84.4676   16.1192 C.ar    1  UNL1        0.1278
     17 N          64.3042   83.2033   15.3122 N.ar    1  UNL1       -0.1622
     18 N          63.7249   83.5218   13.9656 N.ar    1  UNL1       -0.2163
     19 H          62.5966   86.6917   12.8672 H       1  UNL1        0.1437
     20 H          62.5746   85.2546   11.9497 H       1  UNL1        0.1437
     21 C          63.5203   82.5499   12.8417 C.ar    1  UNL1        0.0843
     22 C          62.8490   81.2338   13.1011 C.ar    1  UNL1        0.0215
     23 C          62.6443   80.2617   11.9771 C.ar    1  UNL1        0.0312
     24 C          63.1110   80.6059   10.5936 C.ar    1  UNL1        0.1402
     25 F          62.9063   79.6339    9.4696 F       1  UNL1       -0.2042
     26 C          63.7822   81.9220   10.3342 C.ar    1  UNL1        0.0312
     27 C          63.9869   82.8940   11.4583 C.ar    1  UNL1        0.0215
     28 C          63.3418   91.6119   13.1912 C.3     1  UNL1        0.1308
     29 N          64.3120   91.9065   12.0859 N.am    1  UNL1       -0.2703
     30 C          65.5473   92.7099   12.3666 C.2     1  UNL1        0.2536
     31 O          65.8124   93.2185   13.7526 O.2     1  UNL1       -0.2697
     32 C          66.5176   93.0045   11.2612 C.ar    1  UNL1        0.1083
     33 C          67.7856   92.2117   11.1451 C.ar    1  UNL1        0.1467
     34 F          68.0834   91.1241   12.1343 F       1  UNL1       -0.2039
     35 C          68.7558   92.5064   10.0397 C.ar    1  UNL1        0.0299
     36 C          68.4580   93.5939    9.0505 C.ar    1  UNL1        0.0046
     37 C          67.1900   94.3868    9.1666 C.ar    1  UNL1        0.0299
     38 C          66.2197   94.0921   10.2720 C.ar    1  UNL1        0.1467
     39 F          64.9517   94.8850   10.3881 F       1  UNL1       -0.2039
     40 C          64.0470   91.3980   10.6999 C.3     1  UNL1        0.1319
     41 C          62.6375   91.1608   10.2448 C.3     1  UNL1        0.2146
     42 F          62.1951   89.7794    9.8625 F       1  UNL1       -0.2324
@<TRIPOS>BOND
     1    13    14    1
     2    14    15   ar
     3    15     9    1
     4     9    10    2
     5     9    11   am
     6    11     8    1
     7     8     1    1
     8     1     2    1
     9     1    28    1
    10    28    29    1
    11    29    40    1
    12    40    41    1
    13    41    42    1
    14    29    30   am
    15    30    31    2
    16    30    32    1
    17    32    33   ar
    18    33    34    1
    19    33    35   ar
    20    35    36   ar
    21    36    37   ar
    22    37    38   ar
    23    38    39    1
    24     1     4    1
    25     4     5    1
    26     4     6    1
    27     4     7    1
    28    15    16   ar
    29    16    17   ar
    30    17    18   ar
    31    18    21    1
    32    21    22   ar
    33    22    23   ar
    34    23    24   ar
    35    24    25    1
    36    24    26   ar
    37    26    27   ar
    38    18    14   ar
    39    27    21   ar
    40    38    32   ar
    41    13    19    1
    42    13    20    1
    43    11    12    1
    44     2     3    1
