@<TRIPOS>MOLECULE
*****
 32 37 0 0 0
SMALL
GASTEIGER

@<TRIPOS>ATOM
      1 C          62.9291   90.9415   11.5420 C.3     1  UNL1        0.0749
      2 C          64.2482   91.6429   11.4084 C.3     1  UNL1        0.0444
      3 C          65.1731   91.7315   12.5859 C.ar    1  UNL1       -0.0101
      4 C          64.7790   91.1186   13.8970 C.ar    1  UNL1       -0.0091
      5 C          65.7041   91.2072   15.0745 C.ar    1  UNL1       -0.0032
      6 C          67.0232   91.9087   14.9409 C.ar    1  UNL1        0.0010
      7 C          67.4173   92.5215   13.6298 C.ar    1  UNL1        0.0142
      8 C          66.4923   92.4330   12.4523 C.ar    1  UNL1        0.0436
      9 C          63.4599   90.4171   14.0306 C.3     1  UNL1        0.0954
     10 N          62.5350   90.3286   12.8531 N.3     1  UNL1       -0.2934
     11 H          61.6590   90.7699   13.1330 H       1  UNL1        0.1236
     12 N          66.8865   93.0458   11.1412 N.pl3   1  UNL1       -0.3066
     13 C          67.7179   92.3928   10.0771 C.3     1  UNL1        0.1064
     14 C          67.8636   93.3627    8.9422 C.3     1  UNL1        0.0757
     15 C          67.2597   93.1669   10.3012 C.3     1  UNL1        0.0386
     16 C          66.5184   94.4194   10.6639 C.3     1  UNL1        0.0899
     17 C          66.6642   95.3894    9.5290 C.3     1  UNL1        0.0886
     18 N          67.4955   94.7362    8.4650 N.3     1  UNL1       -0.2957
     19 H          68.3404   95.2837    8.3012 H       1  UNL1        0.1233
     20 C          62.0040   90.8529   10.3645 C.3     1  UNL1        0.0886
     21 C          59.5988   90.5297   11.2922 C.3     1  UNL1        0.0899
     22 N          60.7461   90.0413   10.4583 N.3     1  UNL1       -0.2667
     23 C          60.6354   88.7412    9.7184 C.3     1  UNL1        0.0978
     24 C          59.8536   88.6700    8.4402 C.3     1  UNL1        0.0224
     25 C          59.7429   87.3699    7.7002 C.3     1  UNL1        0.0065
     26 C          60.4139   86.1411    8.2384 C.3     1  UNL1        0.0277
     27 C          61.1956   86.2122    9.5167 C.ar    1  UNL1       -0.0073
     28 C          61.8666   84.9834   10.0549 C.ar    1  UNL1       -0.0015
     29 C          62.6483   85.0546   11.3331 C.ar    1  UNL1        0.0203
     30 C          62.7590   86.3547   12.0730 C.ar    1  UNL1        0.0985
     31 N          62.0881   87.5835   11.5348 N.ar    1  UNL1       -0.2471
     32 C          61.3064   87.5123   10.2566 C.ar    1  UNL1        0.0695
@<TRIPOS>BOND
     1    21    22    1
     2    22    20    1
     3     1    20    1
     4     1     2    1
     5     2     3    1
     6     3     4   ar
     7     4     5   ar
     8     5     6   ar
     9     6     7   ar
    10     7     8   ar
    11     8    12    1
    12    12    13    1
    13    14    13    1
    14    14    15    1
    15    15    16    1
    16    16    17    1
    17    17    18    1
    18     4     9    1
    19     9    10    1
    20    23    22    1
    21    23    24    1
    22    24    25    1
    23    25    26    1
    24    26    27    1
    25    27    28   ar
    26    28    29   ar
    27    29    30   ar
    28    30    31   ar
    29    31    32   ar
    30    10     1    1
    31    32    23    1
    32     8     3   ar
    33    16    12    1
    34    32    27   ar
    35    18    14    1
    36    18    19    1
    37    10    11    1
@<TRIPOS>MOLECULE
*****
 32 37 0 0 0
SMALL
GASTEIGER

@<TRIPOS>ATOM
      1 C          63.0741   90.0146   11.8526 C.3     1  UNL1        0.0749
      2 C          64.1128   91.0937   11.7698 C.3     1  UNL1        0.0444
      3 C          64.7757   91.5938   13.0189 C.ar    1  UNL1       -0.0101
      4 C          64.4001   91.0150   14.3507 C.ar    1  UNL1       -0.0091
      5 C          65.0631   91.5152   15.5999 C.ar    1  UNL1       -0.0032
      6 C          66.1018   92.5943   15.5171 C.ar    1  UNL1        0.0010
      7 C          66.4774   93.1731   14.1852 C.ar    1  UNL1        0.0142
      8 C          65.8144   92.6729   12.9362 C.ar    1  UNL1        0.0436
      9 C          63.3615   89.9360   14.4335 C.3     1  UNL1        0.0954
     10 N          62.6985   89.4358   13.1845 N.3     1  UNL1       -0.2934
     11 H          61.6969   89.5901   13.3007 H       1  UNL1        0.1236
     12 N          66.1901   93.2518   11.6043 N.pl3   1  UNL1       -0.3066
     13 C          67.0939   92.6161   10.5899 C.3     1  UNL1        0.1064
     14 C          67.1903   93.5393    9.4117 C.3     1  UNL1        0.0757
     15 C          66.5722   93.3616   10.7668 C.3     1  UNL1        0.0386
     16 C          65.7279   94.5679   11.0530 C.3     1  UNL1        0.0899
     17 C          65.8243   95.4912    9.8747 C.3     1  UNL1        0.0886
     18 N          66.7281   94.8555    8.8604 N.3     1  UNL1       -0.2957
     19 H          67.5316   95.4592    8.6862 H       1  UNL1        0.1233
     20 C          62.4111   89.5144   10.6035 C.3     1  UNL1        0.0886
     21 C          60.1642   88.3725   11.2342 C.3     1  UNL1        0.0899
     22 N          61.5446   88.2910   10.6527 N.3     1  UNL1       -0.2667
     23 C          62.0583   86.9861   10.1204 C.3     1  UNL1        0.0978
     24 C          61.9637   86.6849    8.6541 C.3     1  UNL1        0.0224
     25 C          62.4774   85.3800    8.1218 C.3     1  UNL1        0.0065
     26 C          63.0858   84.3763    9.0558 C.3     1  UNL1        0.0277
     27 C          63.1804   84.6776   10.5223 C.ar    1  UNL1       -0.0073
     28 C          63.7888   83.6739   11.4564 C.ar    1  UNL1       -0.0015
     29 C          63.8834   83.9752   12.9227 C.ar    1  UNL1        0.0203
     30 C          63.3697   85.2800   13.4550 C.ar    1  UNL1        0.0985
     31 N          62.7613   86.2837   12.5209 N.ar    1  UNL1       -0.2471
     32 C          62.6667   85.9825   11.0546 C.ar    1  UNL1        0.0695
@<TRIPOS>BOND
     1    21    22    1
     2    22    20    1
     3     1    20    1
     4     1     2    1
     5     2     3    1
     6     3     4   ar
     7     4     5   ar
     8     5     6   ar
     9     6     7   ar
    10     7     8   ar
    11     8    12    1
    12    12    13    1
    13    14    13    1
    14    14    15    1
    15    15    16    1
    16    16    17    1
    17    17    18    1
    18     4     9    1
    19     9    10    1
    20    23    22    1
    21    23    24    1
    22    24    25    1
    23    25    26    1
    24    26    27    1
    25    27    28   ar
    26    28    29   ar
    27    29    30   ar
    28    30    31   ar
    29    31    32   ar
    30    10     1    1
    31    32    23    1
    32     8     3   ar
    33    16    12    1
    34    32    27   ar
    35    18    14    1
    36    18    19    1
    37    10    11    1
@<TRIPOS>MOLECULE
*****
 32 37 0 0 0
SMALL
GASTEIGER

@<TRIPOS>ATOM
      1 C          61.0728   87.0326   10.5175 C.3     1  UNL1        0.0749
      2 C          61.7738   86.2381   11.5793 C.3     1  UNL1        0.0444
      3 C          62.7091   85.1310   11.1929 C.ar    1  UNL1       -0.0101
      4 C          62.9434   84.8182    9.7447 C.ar    1  UNL1       -0.0091
      5 C          63.8788   83.7110    9.3584 C.ar    1  UNL1       -0.0032
      6 C          64.5798   82.9166   10.4202 C.ar    1  UNL1        0.0010
      7 C          64.3455   83.2293   11.8684 C.ar    1  UNL1        0.0142
      8 C          63.4102   84.3365   12.2548 C.ar    1  UNL1        0.0436
      9 C          62.2425   85.6127    8.6829 C.3     1  UNL1        0.0954
     10 N          61.3072   86.7198    9.0693 N.3     1  UNL1       -0.2934
     11 H          60.3983   86.4915    8.6666 H       1  UNL1        0.1236
     12 N          63.1758   84.6492   13.7030 N.pl3   1  UNL1       -0.3066
     13 C          62.2066   83.9510   14.6102 C.3     1  UNL1        0.1064
     14 C          62.3014   84.5853   15.9661 C.3     1  UNL1        0.0757
     15 C          62.8418   84.6248   14.5674 C.3     1  UNL1        0.0386
     16 C          63.8696   85.7152   14.4983 C.3     1  UNL1        0.0899
     17 C          63.9643   86.3495   15.8542 C.3     1  UNL1        0.0886
     18 N          62.9951   85.6512   16.7613 N.3     1  UNL1       -0.2957
     19 H          62.3106   86.3190   17.1163 H       1  UNL1        0.1233
     20 C          60.1375   88.1398   10.9039 C.3     1  UNL1        0.0886
     21 C          59.7881   89.4154   13.1402 C.3     1  UNL1        0.0899
     22 N          60.5775   89.1850   11.8856 N.3     1  UNL1       -0.2667
     23 C          61.8070   90.0000   11.6128 C.3     1  UNL1        0.0978
     24 C          62.0569   90.5429   10.2371 C.3     1  UNL1        0.0224
     25 C          63.2863   91.3578    9.9643 C.3     1  UNL1        0.0065
     26 C          64.2658   91.6298   11.0673 C.3     1  UNL1        0.0277
     27 C          64.0159   91.0869   12.4431 C.ar    1  UNL1       -0.0073
     28 C          64.9954   91.3589   13.5461 C.ar    1  UNL1       -0.0015
     29 C          64.7454   90.8160   14.9218 C.ar    1  UNL1        0.0203
     30 C          63.5160   90.0010   15.1946 C.ar    1  UNL1        0.0985
     31 N          62.5365   89.7290   14.0916 N.ar    1  UNL1       -0.2471
     32 C          62.7865   90.2720   12.7159 C.ar    1  UNL1        0.0695
@<TRIPOS>BOND
     1    21    22    1
     2    22    20    1
     3     1    20    1
     4     1     2    1
     5     2     3    1
     6     3     4   ar
     7     4     5   ar
     8     5     6   ar
     9     6     7   ar
    10     7     8   ar
    11     8    12    1
    12    12    13    1
    13    14    13    1
    14    14    15    1
    15    15    16    1
    16    16    17    1
    17    17    18    1
    18     4     9    1
    19     9    10    1
    20    23    22    1
    21    23    24    1
    22    24    25    1
    23    25    26    1
    24    26    27    1
    25    27    28   ar
    26    28    29   ar
    27    29    30   ar
    28    30    31   ar
    29    31    32   ar
    30    10     1    1
    31    32    23    1
    32     8     3   ar
    33    16    12    1
    34    32    27   ar
    35    18    14    1
    36    18    19    1
    37    10    11    1
@<TRIPOS>MOLECULE
*****
 32 37 0 0 0
SMALL
GASTEIGER

@<TRIPOS>ATOM
      1 C          63.1848   90.9924   12.1614 C.3     1  UNL1        0.0749
      2 C          64.4836   91.6802   11.8616 C.3     1  UNL1        0.0444
      3 C          65.4983   91.8738   12.9492 C.ar    1  UNL1       -0.0101
      4 C          65.2142   91.3796   14.3366 C.ar    1  UNL1       -0.0091
      5 C          66.2289   91.5732   15.4242 C.ar    1  UNL1       -0.0032
      6 C          67.5277   92.2610   15.1244 C.ar    1  UNL1        0.0010
      7 C          67.8119   92.7552   13.7370 C.ar    1  UNL1        0.0142
      8 C          66.7972   92.5617   12.6494 C.ar    1  UNL1        0.0436
      9 C          63.9153   90.6917   14.6365 C.3     1  UNL1        0.0954
     10 N          62.9007   90.4982   13.5489 N.3     1  UNL1       -0.2934
     11 H          62.0462   90.9619   13.8574 H       1  UNL1        0.1236
     12 N          67.0813   93.0559   11.2619 N.pl3   1  UNL1       -0.3066
     13 C          67.8251   92.3088   10.1949 C.3     1  UNL1        0.1064
     14 C          67.8750   93.1752    8.9714 C.3     1  UNL1        0.0757
     15 C          67.3845   93.1014   10.3870 C.3     1  UNL1        0.0386
     16 C          66.6716   94.3840   10.6979 C.3     1  UNL1        0.0899
     17 C          66.7215   95.2504    9.4744 C.3     1  UNL1        0.0886
     18 N          67.4653   94.5033    8.4075 N.3     1  UNL1       -0.2957
     19 H          68.2924   95.0307    8.1281 H       1  UNL1        0.1233
     20 C          62.1700   90.7988   11.0738 C.3     1  UNL1        0.0886
     21 C          59.7661   90.1533   11.8183 C.3     1  UNL1        0.0899
     22 N          61.0910   89.7686   11.2295 N.3     1  UNL1       -0.2667
     23 C          61.3369   88.3536   10.7965 C.3     1  UNL1        0.0978
     24 C          62.2266   87.4634   11.6125 C.3     1  UNL1        0.0224
     25 C          62.4724   86.0485   11.1795 C.3     1  UNL1        0.0065
     26 C          61.8285   85.5237    9.9305 C.3     1  UNL1        0.0277
     27 C          60.9388   86.4140    9.1144 C.ar    1  UNL1       -0.0073
     28 C          60.2950   85.8893    7.8654 C.ar    1  UNL1       -0.0015
     29 C          59.4053   86.7795    7.0494 C.ar    1  UNL1        0.0203
     30 C          59.1594   88.1944    7.4824 C.ar    1  UNL1        0.0985
     31 N          59.8033   88.7192    8.7314 N.ar    1  UNL1       -0.2471
     32 C          60.6930   87.8289    9.5474 C.ar    1  UNL1        0.0695
@<TRIPOS>BOND
     1    21    22    1
     2    22    20    1
     3     1    20    1
     4     1     2    1
     5     2     3    1
     6     3     4   ar
     7     4     5   ar
     8     5     6   ar
     9     6     7   ar
    10     7     8   ar
    11     8    12    1
    12    12    13    1
    13    14    13    1
    14    14    15    1
    15    15    16    1
    16    16    17    1
    17    17    18    1
    18     4     9    1
    19     9    10    1
    20    23    22    1
    21    23    24    1
    22    24    25    1
    23    25    26    1
    24    26    27    1
    25    27    28   ar
    26    28    29   ar
    27    29    30   ar
    28    30    31   ar
    29    31    32   ar
    30    10     1    1
    31    32    23    1
    32     8     3   ar
    33    16    12    1
    34    32    27   ar
    35    18    14    1
    36    18    19    1
    37    10    11    1
@<TRIPOS>MOLECULE
*****
 32 37 0 0 0
SMALL
GASTEIGER

@<TRIPOS>ATOM
      1 C          64.3940   86.4420   14.6167 C.3     1  UNL1        0.0749
      2 C          63.6755   86.0266   13.3673 C.3     1  UNL1        0.0444
      3 C          63.3444   84.5817   13.1378 C.ar    1  UNL1       -0.0101
      4 C          63.7319   83.5523   14.1577 C.ar    1  UNL1       -0.0091
      5 C          63.4008   82.1074   13.9281 C.ar    1  UNL1       -0.0032
      6 C          62.6822   81.6919   12.6787 C.ar    1  UNL1        0.0010
      7 C          62.2947   82.7213   11.6589 C.ar    1  UNL1        0.0142
      8 C          62.6258   84.1662   11.8884 C.ar    1  UNL1        0.0436
      9 C          64.4504   83.9677   15.4071 C.3     1  UNL1        0.0954
     10 N          64.7815   85.4126   15.6366 N.3     1  UNL1       -0.2934
     11 H          65.7944   85.4694   15.7422 H       1  UNL1        0.1236
     12 N          62.2383   85.1956   10.8685 N.pl3   1  UNL1       -0.3066
     13 C          62.8452   85.3595    9.5066 C.3     1  UNL1        0.1064
     14 C          62.1579   86.5071    8.8278 C.3     1  UNL1        0.0757
     15 C          62.2076   85.6965   10.0890 C.3     1  UNL1        0.0386
     16 C          61.1759   86.2419   11.0314 C.3     1  UNL1        0.0899
     17 C          60.4886   87.3894   10.3526 C.3     1  UNL1        0.0886
     18 N          61.0955   87.5533    8.9908 N.3     1  UNL1       -0.2957
     19 H          61.5083   88.4820    8.9053 H       1  UNL1        0.1233
     20 C          64.7251   87.8870   14.8463 C.3     1  UNL1        0.0886
     21 C          62.6134   89.1782   15.6359 C.3     1  UNL1        0.0899
     22 N          63.6841   88.9413   14.6124 N.3     1  UNL1       -0.2667
     23 C          63.7138   89.7587   13.3551 C.3     1  UNL1        0.0978
     24 C          62.8697   89.3598   12.1811 C.3     1  UNL1        0.0224
     25 C          62.8993   90.1773   10.9237 C.3     1  UNL1        0.0065
     26 C          63.7732   91.3936   10.8404 C.3     1  UNL1        0.0277
     27 C          64.6174   91.7925   12.0144 C.ar    1  UNL1       -0.0073
     28 C          65.4913   93.0088   11.9310 C.ar    1  UNL1       -0.0015
     29 C          66.3354   93.4076   13.1050 C.ar    1  UNL1        0.0203
     30 C          66.3057   92.5902   14.3623 C.ar    1  UNL1        0.0985
     31 N          65.4319   91.3739   14.4457 N.ar    1  UNL1       -0.2471
     32 C          64.5877   90.9750   13.2717 C.ar    1  UNL1        0.0695
@<TRIPOS>BOND
     1    21    22    1
     2    22    20    1
     3     1    20    1
     4     1     2    1
     5     2     3    1
     6     3     4   ar
     7     4     5   ar
     8     5     6   ar
     9     6     7   ar
    10     7     8   ar
    11     8    12    1
    12    12    13    1
    13    14    13    1
    14    14    15    1
    15    15    16    1
    16    16    17    1
    17    17    18    1
    18     4     9    1
    19     9    10    1
    20    23    22    1
    21    23    24    1
    22    24    25    1
    23    25    26    1
    24    26    27    1
    25    27    28   ar
    26    28    29   ar
    27    29    30   ar
    28    30    31   ar
    29    31    32   ar
    30    10     1    1
    31    32    23    1
    32     8     3   ar
    33    16    12    1
    34    32    27   ar
    35    18    14    1
    36    18    19    1
    37    10    11    1
@<TRIPOS>MOLECULE
*****
 32 37 0 0 0
SMALL
GASTEIGER

@<TRIPOS>ATOM
      1 C          63.8758   91.6588   10.9096 C.3     1  UNL1        0.0749
      2 C          64.1020   91.2241   12.3273 C.3     1  UNL1        0.0444
      3 C          65.0876   91.9569   13.1883 C.ar    1  UNL1       -0.0101
      4 C          65.8471   93.1245   12.6316 C.ar    1  UNL1       -0.0091
      5 C          66.8328   93.8574   13.4927 C.ar    1  UNL1       -0.0032
      6 C          67.0589   93.4227   14.9104 C.ar    1  UNL1        0.0010
      7 C          66.2994   92.2551   15.4670 C.ar    1  UNL1        0.0142
      8 C          65.3138   91.5222   14.6060 C.ar    1  UNL1        0.0436
      9 C          65.6210   93.5593   11.2140 C.3     1  UNL1        0.0954
     10 N          64.6353   92.8264   10.3530 N.3     1  UNL1       -0.2934
     11 H          65.1506   92.4831    9.5424 H       1  UNL1        0.1236
     12 N          64.5543   90.3546   15.1627 N.pl3   1  UNL1       -0.3066
     13 C          63.5207   90.4117   16.2482 C.3     1  UNL1        0.1064
     14 C          63.0226   89.0173   16.4880 C.3     1  UNL1        0.0757
     15 C          63.9692   89.8438   15.6689 C.3     1  UNL1        0.0386
     16 C          64.6950   88.9248   14.7316 C.3     1  UNL1        0.0899
     17 C          64.1970   87.5304   14.9713 C.3     1  UNL1        0.0886
     18 N          63.1634   87.5876   16.0568 N.3     1  UNL1       -0.2957
     19 H          63.4597   87.0152   16.8474 H       1  UNL1        0.1233
     20 C          62.8901   90.9260   10.0485 C.3     1  UNL1        0.0886
     21 C          60.7233   90.8454   11.4798 C.3     1  UNL1        0.0899
     22 N          61.7798   90.1407   10.6813 N.3     1  UNL1       -0.2667
     23 C          61.7258   88.6509   10.5157 C.3     1  UNL1        0.0978
     24 C          62.5103   87.7649   11.4373 C.3     1  UNL1        0.0224
     25 C          62.4563   86.2751   11.2717 C.3     1  UNL1        0.0065
     26 C          61.6178   85.6712   10.1845 C.3     1  UNL1        0.0277
     27 C          60.8332   86.5572    9.2628 C.ar    1  UNL1       -0.0073
     28 C          59.9947   85.9533    8.1755 C.ar    1  UNL1       -0.0015
     29 C          59.2101   86.8393    7.2539 C.ar    1  UNL1        0.0203
     30 C          59.2641   88.3292    7.4195 C.ar    1  UNL1        0.0985
     31 N          60.1026   88.9330    8.5067 N.ar    1  UNL1       -0.2471
     32 C          60.8872   88.0470    9.4284 C.ar    1  UNL1        0.0695
@<TRIPOS>BOND
     1    21    22    1
     2    22    20    1
     3     1    20    1
     4     1     2    1
     5     2     3    1
     6     3     4   ar
     7     4     5   ar
     8     5     6   ar
     9     6     7   ar
    10     7     8   ar
    11     8    12    1
    12    12    13    1
    13    14    13    1
    14    14    15    1
    15    15    16    1
    16    16    17    1
    17    17    18    1
    18     4     9    1
    19     9    10    1
    20    23    22    1
    21    23    24    1
    22    24    25    1
    23    25    26    1
    24    26    27    1
    25    27    28   ar
    26    28    29   ar
    27    29    30   ar
    28    30    31   ar
    29    31    32   ar
    30    10     1    1
    31    32    23    1
    32     8     3   ar
    33    16    12    1
    34    32    27   ar
    35    18    14    1
    36    18    19    1
    37    10    11    1
@<TRIPOS>MOLECULE
*****
 32 37 0 0 0
SMALL
GASTEIGER

@<TRIPOS>ATOM
      1 C          61.5296   89.2102   10.9794 C.3     1  UNL1        0.0749
      2 C          62.3193   89.2511   12.2540 C.3     1  UNL1        0.0444
      3 C          63.4346   90.2413   12.4138 C.ar    1  UNL1       -0.0101
      4 C          63.7603   91.1906   11.2989 C.ar    1  UNL1       -0.0091
      5 C          64.8756   92.1808   11.4587 C.ar    1  UNL1       -0.0032
      6 C          65.6653   92.2217   12.7333 C.ar    1  UNL1        0.0010
      7 C          65.3397   91.2725   13.8482 C.ar    1  UNL1        0.0142
      8 C          64.2244   90.2823   13.6884 C.ar    1  UNL1        0.0436
      9 C          62.9706   91.1496   10.0243 C.3     1  UNL1        0.0954
     10 N          61.8552   90.1595    9.8646 N.3     1  UNL1       -0.2934
     11 H          62.0818   89.5897    9.0494 H       1  UNL1        0.1236
     12 N          63.8988   89.3331   14.8033 N.pl3   1  UNL1       -0.3066
     13 C          63.2210   89.6877   16.0935 C.3     1  UNL1        0.1064
     14 C          63.0971   88.4363   16.9113 C.3     1  UNL1        0.0757
     15 C          63.5926   88.9905   15.6085 C.3     1  UNL1        0.0386
     16 C          64.1938   87.8625   14.8236 C.3     1  UNL1        0.0899
     17 C          64.0698   86.6111   15.6414 C.3     1  UNL1        0.0886
     18 N          63.3921   86.9658   16.9316 N.3     1  UNL1       -0.2957
     19 H          64.0055   86.7466   17.7165 H       1  UNL1        0.1233
     20 C          60.4142   88.2200   10.8196 C.3     1  UNL1        0.0886
     21 C          59.2155   87.5505    8.6140 C.3     1  UNL1        0.0899
     22 N          60.3404   87.3656    9.5889 N.3     1  UNL1       -0.2667
     23 C          61.3914   86.3264    9.3332 C.3     1  UNL1        0.0978
     24 C          61.8232   86.0263    7.9284 C.3     1  UNL1        0.0224
     25 C          62.8742   84.9871    7.6727 C.3     1  UNL1        0.0065
     26 C          63.4934   84.2480    8.8217 C.3     1  UNL1        0.0277
     27 C          63.0616   84.5481   10.2265 C.ar    1  UNL1       -0.0073
     28 C          63.6808   83.8090   11.3756 C.ar    1  UNL1       -0.0015
     29 C          63.2490   84.1091   12.7803 C.ar    1  UNL1        0.0203
     30 C          62.1980   85.1484   13.0361 C.ar    1  UNL1        0.0985
     31 N          61.5788   85.8875   11.8871 N.ar    1  UNL1       -0.2471
     32 C          62.0106   85.5873   10.4823 C.ar    1  UNL1        0.0695
@<TRIPOS>BOND
     1    21    22    1
     2    22    20    1
     3     1    20    1
     4     1     2    1
     5     2     3    1
     6     3     4   ar
     7     4     5   ar
     8     5     6   ar
     9     6     7   ar
    10     7     8   ar
    11     8    12    1
    12    12    13    1
    13    14    13    1
    14    14    15    1
    15    15    16    1
    16    16    17    1
    17    17    18    1
    18     4     9    1
    19     9    10    1
    20    23    22    1
    21    23    24    1
    22    24    25    1
    23    25    26    1
    24    26    27    1
    25    27    28   ar
    26    28    29   ar
    27    29    30   ar
    28    30    31   ar
    29    31    32   ar
    30    10     1    1
    31    32    23    1
    32     8     3   ar
    33    16    12    1
    34    32    27   ar
    35    18    14    1
    36    18    19    1
    37    10    11    1
@<TRIPOS>MOLECULE
*****
 32 37 0 0 0
SMALL
GASTEIGER

@<TRIPOS>ATOM
      1 C          63.4493   84.0985   12.7136 C.3     1  UNL1        0.0749
      2 C          62.8322   85.2825   12.0300 C.3     1  UNL1        0.0444
      3 C          62.7108   85.3062   10.5351 C.ar    1  UNL1       -0.0101
      4 C          63.2065   84.1459    9.7239 C.ar    1  UNL1       -0.0091
      5 C          63.0850   84.1697    8.2290 C.ar    1  UNL1       -0.0032
      6 C          62.4679   85.3536    7.5453 C.ar    1  UNL1        0.0010
      7 C          61.9723   86.5139    8.3566 C.ar    1  UNL1        0.0142
      8 C          62.0937   86.4902    9.8514 C.ar    1  UNL1        0.0436
      9 C          63.8235   82.9619   10.4075 C.3     1  UNL1        0.0954
     10 N          63.9450   82.9382   11.9024 N.3     1  UNL1       -0.2934
     11 H          64.9368   82.8322   12.1156 H       1  UNL1        0.1236
     12 N          61.5980   87.6505   10.6627 N.pl3   1  UNL1       -0.3066
     13 C          62.4082   88.8391   11.0879 C.3     1  UNL1        0.1064
     14 C          61.5161   89.7491   11.8792 C.3     1  UNL1        0.0757
     15 C          61.5667   88.4521   11.1273 C.3     1  UNL1        0.0386
     16 C          60.2052   87.8258   11.1911 C.3     1  UNL1        0.0899
     17 C          59.3131   88.7358   11.9824 C.3     1  UNL1        0.0886
     18 N          60.1233   89.9244   12.4076 N.3     1  UNL1       -0.2957
     19 H          60.1441   89.9828   13.4257 H       1  UNL1        0.1233
     20 C          63.5708   84.0747   14.2085 C.3     1  UNL1        0.0886
     21 C          65.9167   85.1165   14.6103 C.3     1  UNL1        0.0899
     22 N          64.4467   85.0730   14.9058 N.3     1  UNL1       -0.2667
     23 C          63.8527   86.0278   15.8986 C.3     1  UNL1        0.0978
     24 C          63.2773   85.5115   17.1840 C.3     1  UNL1        0.0224
     25 C          62.6833   86.4663   18.1767 C.3     1  UNL1        0.0065
     26 C          62.6647   87.9373   17.8840 C.3     1  UNL1        0.0277
     27 C          63.2401   88.4537   16.5985 C.ar    1  UNL1       -0.0073
     28 C          63.2215   89.9247   16.3059 C.ar    1  UNL1       -0.0015
     29 C          63.7969   90.4409   15.0204 C.ar    1  UNL1        0.0203
     30 C          64.3909   89.4861   14.0277 C.ar    1  UNL1        0.0985
     31 N          64.4095   88.0151   14.3204 N.ar    1  UNL1       -0.2471
     32 C          63.8341   87.4989   15.6058 C.ar    1  UNL1        0.0695
@<TRIPOS>BOND
     1    21    22    1
     2    22    20    1
     3     1    20    1
     4     1     2    1
     5     2     3    1
     6     3     4   ar
     7     4     5   ar
     8     5     6   ar
     9     6     7   ar
    10     7     8   ar
    11     8    12    1
    12    12    13    1
    13    14    13    1
    14    14    15    1
    15    15    16    1
    16    16    17    1
    17    17    18    1
    18     4     9    1
    19     9    10    1
    20    23    22    1
    21    23    24    1
    22    24    25    1
    23    25    26    1
    24    26    27    1
    25    27    28   ar
    26    28    29   ar
    27    29    30   ar
    28    30    31   ar
    29    31    32   ar
    30    10     1    1
    31    32    23    1
    32     8     3   ar
    33    16    12    1
    34    32    27   ar
    35    18    14    1
    36    18    19    1
    37    10    11    1
@<TRIPOS>MOLECULE
*****
 32 37 0 0 0
SMALL
GASTEIGER

@<TRIPOS>ATOM
      1 C          62.1053   87.4860   10.6363 C.3     1  UNL1        0.0749
      2 C          62.4734   86.4933   11.6988 C.3     1  UNL1        0.0444
      3 C          62.9728   85.1325   11.3131 C.ar    1  UNL1       -0.0101
      4 C          63.1040   84.7644    9.8649 C.ar    1  UNL1       -0.0091
      5 C          63.6035   83.4035    9.4792 C.ar    1  UNL1       -0.0032
      6 C          63.9716   82.4108   10.5417 C.ar    1  UNL1        0.0010
      7 C          63.8403   82.7789   11.9899 C.ar    1  UNL1        0.0142
      8 C          63.3409   84.1397   12.3756 C.ar    1  UNL1        0.0436
      9 C          62.7359   85.7571    8.8024 C.3     1  UNL1        0.0954
     10 N          62.2366   87.1179    9.1881 N.3     1  UNL1       -0.2934
     11 H          61.3104   87.2202    8.7732 H       1  UNL1        0.1236
     12 N          63.2097   84.5077   13.8238 N.pl3   1  UNL1       -0.3066
     13 C          62.2304   83.9217   14.7972 C.3     1  UNL1        0.1064
     14 C          62.4501   84.5783   16.1279 C.3     1  UNL1        0.0757
     15 C          62.9195   84.5347   14.7039 C.3     1  UNL1        0.0386
     16 C          64.0347   85.5265   14.5529 C.3     1  UNL1        0.0899
     17 C          64.2544   86.1830   15.8836 C.3     1  UNL1        0.0886
     18 N          63.2751   85.5970   16.8569 N.3     1  UNL1       -0.2957
     19 H          62.6714   86.3319   17.2253 H       1  UNL1        0.1233
     20 C          61.6059   88.8469   11.0220 C.3     1  UNL1        0.0886
     21 C          62.5786   90.9239    9.8013 C.3     1  UNL1        0.0899
     22 N          62.5378   90.0220   10.9992 N.3     1  UNL1       -0.2667
     23 C          63.4290   90.2953   12.1744 C.3     1  UNL1        0.0978
     24 C          63.3443   89.4305   13.3971 C.3     1  UNL1        0.0224
     25 C          64.2355   89.7038   14.5723 C.3     1  UNL1        0.0065
     26 C          65.2113   90.8420   14.5249 C.3     1  UNL1        0.0277
     27 C          65.2960   91.7069   13.3022 C.ar    1  UNL1       -0.0073
     28 C          66.2718   92.8451   13.2548 C.ar    1  UNL1       -0.0015
     29 C          66.3564   93.7099   12.0322 C.ar    1  UNL1        0.0203
     30 C          65.4653   93.4366   10.8570 C.ar    1  UNL1        0.0985
     31 N          64.4895   92.2984   10.9044 N.ar    1  UNL1       -0.2471
     32 C          64.4048   91.4336   12.1270 C.ar    1  UNL1        0.0695
@<TRIPOS>BOND
     1    21    22    1
     2    22    20    1
     3     1    20    1
     4     1     2    1
     5     2     3    1
     6     3     4   ar
     7     4     5   ar
     8     5     6   ar
     9     6     7   ar
    10     7     8   ar
    11     8    12    1
    12    12    13    1
    13    14    13    1
    14    14    15    1
    15    15    16    1
    16    16    17    1
    17    17    18    1
    18     4     9    1
    19     9    10    1
    20    23    22    1
    21    23    24    1
    22    24    25    1
    23    25    26    1
    24    26    27    1
    25    27    28   ar
    26    28    29   ar
    27    29    30   ar
    28    30    31   ar
    29    31    32   ar
    30    10     1    1
    31    32    23    1
    32     8     3   ar
    33    16    12    1
    34    32    27   ar
    35    18    14    1
    36    18    19    1
    37    10    11    1
