@<TRIPOS>MOLECULE
*****
 14 15 0 0 0
SMALL
GASTEIGER

@<TRIPOS>ATOM
      1 C          65.2698   91.3645   14.4304 C.ar    1  UNL1        0.0479
      2 C          66.7087   91.3854   14.8536 C.ar    1  UNL1        0.0085
      3 C          67.5135   91.9704   13.7311 C.ar    1  UNL1        0.0071
      4 C          66.5720   92.3110   12.6142 C.ar    1  UNL1        0.0310
      5 S          65.1853   91.9365   13.0464 S.2     1  UNL1       -0.0853
      6 C          66.9507   92.9193   11.2963 C.ar    1  UNL1        0.0252
      7 C          67.9060   92.2046   10.3872 C.ar    1  UNL1        0.0036
      8 C          68.2847   92.8129    9.0695 C.ar    1  UNL1        0.0207
      9 C          67.7081   94.1360    8.6609 C.ar    1  UNL1        0.0989
     10 N          66.7528   94.8508    9.5700 N.ar    1  UNL1       -0.2423
     11 C          66.3741   94.2424   10.8877 C.ar    1  UNL1        0.0993
     12 N          63.6289   91.6521   16.4241 N.2     1  UNL1       -0.2964
     13 C          64.1176   90.8600   15.2478 C.2     1  UNL1        0.0951
     14 H          62.8727   91.3210   16.9606 H       1  UNL1        0.1868
@<TRIPOS>BOND
     1    12    13    2
     2    13     1    1
     3     1     2   ar
     4     2     3   ar
     5     3     4   ar
     6     4     6    1
     7     6     7   ar
     8     7     8   ar
     9     8     9   ar
    10     9    10   ar
    11    10    11   ar
    12     4     5   ar
    13     5     1   ar
    14    11     6   ar
    15    12    14    1
@<TRIPOS>MOLECULE
*****
 14 15 0 0 0
SMALL
GASTEIGER

@<TRIPOS>ATOM
      1 C          67.3982   94.3069    9.1027 C.ar    1  UNL1        0.0479
      2 C          68.2334   93.0696    8.9549 C.ar    1  UNL1        0.0085
      3 C          67.9558   92.1799   10.1301 C.ar    1  UNL1        0.0071
      4 C          66.9491   92.8673   11.0043 C.ar    1  UNL1        0.0310
      5 S          66.6045   94.1818   10.3693 S.2     1  UNL1       -0.0853
      6 C          66.3859   92.3337   12.2882 C.ar    1  UNL1        0.0252
      7 C          67.2968   92.0469   13.4449 C.ar    1  UNL1        0.0036
      8 C          66.7335   91.5133   14.7286 C.ar    1  UNL1        0.0207
      9 C          65.2594   91.2665   14.8557 C.ar    1  UNL1        0.0989
     10 N          64.3486   91.5533   13.6989 N.ar    1  UNL1       -0.2423
     11 C          64.9118   92.0869   12.4152 C.ar    1  UNL1        0.0993
     12 N          67.8209   96.8210    8.6021 N.2     1  UNL1       -0.2964
     13 C          67.3630   95.4658    8.1509 C.2     1  UNL1        0.0951
     14 H          67.7978   97.5816    7.9775 H       1  UNL1        0.1868
@<TRIPOS>BOND
     1    12    13    2
     2    13     1    1
     3     1     2   ar
     4     2     3   ar
     5     3     4   ar
     6     4     6    1
     7     6     7   ar
     8     7     8   ar
     9     8     9   ar
    10     9    10   ar
    11    10    11   ar
    12     4     5   ar
    13     5     1   ar
    14    11     6   ar
    15    12    14    1
@<TRIPOS>MOLECULE
*****
 14 15 0 0 0
SMALL
GASTEIGER

@<TRIPOS>ATOM
      1 C          60.5182   87.4447    8.9693 C.ar    1  UNL1        0.0479
      2 C          61.2804   88.3734    9.8674 C.ar    1  UNL1        0.0085
      3 C          62.2270   87.5500   10.6896 C.ar    1  UNL1        0.0071
      4 C          62.0498   86.1124   10.2996 C.ar    1  UNL1        0.0310
      5 S          60.9937   86.0473    9.2365 S.2     1  UNL1       -0.0853
      6 C          62.7975   84.9449   10.8724 C.ar    1  UNL1        0.0252
      7 C          63.5515   84.0189    9.9647 C.ar    1  UNL1        0.0036
      8 C          64.2991   82.8515   10.5374 C.ar    1  UNL1        0.0207
      9 C          64.2928   82.6100   12.0179 C.ar    1  UNL1        0.0989
     10 N          63.5388   83.5361   12.9255 N.ar    1  UNL1       -0.2423
     11 C          62.7911   84.7035   12.3528 C.ar    1  UNL1        0.0993
     12 N          58.3555   86.8926    7.6396 N.2     1  UNL1       -0.2964
     13 C          59.4652   87.8433    7.9781 C.2     1  UNL1        0.0951
     14 H          57.6644   87.1543    6.9891 H       1  UNL1        0.1868
@<TRIPOS>BOND
     1    12    13    2
     2    13     1    1
     3     1     2   ar
     4     2     3   ar
     5     3     4   ar
     6     4     6    1
     7     6     7   ar
     8     7     8   ar
     9     8     9   ar
    10     9    10   ar
    11    10    11   ar
    12     4     5   ar
    13     5     1   ar
    14    11     6   ar
    15    12    14    1
@<TRIPOS>MOLECULE
*****
 14 15 0 0 0
SMALL
GASTEIGER

@<TRIPOS>ATOM
      1 C          63.5201   90.2284   12.4129 C.ar    1  UNL1        0.0479
      2 C          63.5857   91.2466   11.3133 C.ar    1  UNL1        0.0085
      3 C          62.8390   90.7018   10.1320 C.ar    1  UNL1        0.0071
      4 C          62.3119   89.3469   10.5015 C.ar    1  UNL1        0.0310
      5 S          62.7328   89.0543   11.9111 S.2     1  UNL1       -0.0853
      6 C          61.5054   88.4432    9.6165 C.ar    1  UNL1        0.0252
      7 C          61.9275   87.0180    9.4159 C.ar    1  UNL1        0.0036
      8 C          61.1211   86.1144    8.5310 C.ar    1  UNL1        0.0207
      9 C          59.8924   86.6361    7.8467 C.ar    1  UNL1        0.0989
     10 N          59.4702   88.0614    8.0474 N.ar    1  UNL1       -0.2423
     11 C          60.2767   88.9649    8.9323 C.ar    1  UNL1        0.0993
     12 N          63.4989   91.2530   14.8004 N.2     1  UNL1       -0.2964
     13 C          64.1339   90.3610   13.7752 C.2     1  UNL1        0.0951
     14 H          63.9018   91.3400   15.6944 H       1  UNL1        0.1868
@<TRIPOS>BOND
     1    12    13    2
     2    13     1    1
     3     1     2   ar
     4     2     3   ar
     5     3     4   ar
     6     4     6    1
     7     6     7   ar
     8     7     8   ar
     9     8     9   ar
    10     9    10   ar
    11    10    11   ar
    12     4     5   ar
    13     5     1   ar
    14    11     6   ar
    15    12    14    1
@<TRIPOS>MOLECULE
*****
 14 15 0 0 0
SMALL
GASTEIGER

@<TRIPOS>ATOM
      1 C          63.3359   84.0267   11.4540 C.ar    1  UNL1        0.0479
      2 C          63.8520   83.6943   10.0853 C.ar    1  UNL1        0.0085
      3 C          63.1916   84.6170    9.1043 C.ar    1  UNL1        0.0071
      4 C          62.2673   85.5196    9.8666 C.ar    1  UNL1        0.0310
      5 S          62.3566   85.1548   11.3188 S.2     1  UNL1       -0.0853
      6 C          61.4052   86.5978    9.2797 C.ar    1  UNL1        0.0252
      7 C          60.3298   86.2454    8.2953 C.ar    1  UNL1        0.0036
      8 C          59.4677   87.3236    7.7085 C.ar    1  UNL1        0.0207
      9 C          59.6811   88.7541    8.1060 C.ar    1  UNL1        0.0989
     10 N          60.7566   89.1065    9.0905 N.ar    1  UNL1       -0.2423
     11 C          61.6187   88.0283    9.6773 C.ar    1  UNL1        0.0993
     12 N          64.9476   83.8081   13.4801 N.2     1  UNL1       -0.2964
     13 C          63.7301   83.3498   12.7333 C.2     1  UNL1        0.0951
     14 H          65.2062   83.3638   14.3197 H       1  UNL1        0.1868
@<TRIPOS>BOND
     1    12    13    2
     2    13     1    1
     3     1     2   ar
     4     2     3   ar
     5     3     4   ar
     6     4     6    1
     7     6     7   ar
     8     7     8   ar
     9     8     9   ar
    10     9    10   ar
    11    10    11   ar
    12     4     5   ar
    13     5     1   ar
    14    11     6   ar
    15    12    14    1
@<TRIPOS>MOLECULE
*****
 14 15 0 0 0
SMALL
GASTEIGER

@<TRIPOS>ATOM
      1 C          60.8954   86.4838    8.9050 C.ar    1  UNL1        0.0479
      2 C          61.9473   85.8305    8.0584 C.ar    1  UNL1        0.0085
      3 C          62.8841   85.0941    8.9695 C.ar    1  UNL1        0.0071
      4 C          62.4112   85.2924   10.3792 C.ar    1  UNL1        0.0310
      5 S          61.1821   86.1513   10.3393 S.2     1  UNL1       -0.0853
      6 C          63.0546   84.7304   11.6122 C.ar    1  UNL1        0.0252
      7 C          63.2025   85.5842   12.8366 C.ar    1  UNL1        0.0036
      8 C          63.8459   85.0222   14.0695 C.ar    1  UNL1        0.0207
      9 C          64.3412   83.6064   14.0782 C.ar    1  UNL1        0.0989
     10 N          64.1932   82.7526   12.8538 N.ar    1  UNL1       -0.2423
     11 C          63.5499   83.3146   11.6209 C.ar    1  UNL1        0.0993
     12 N          58.5198   86.6648    7.8688 N.2     1  UNL1       -0.2964
     13 C          59.7566   87.3225    8.4051 C.2     1  UNL1        0.0951
     14 H          57.7724   87.2153    7.5407 H       1  UNL1        0.1868
@<TRIPOS>BOND
     1    12    13    2
     2    13     1    1
     3     1     2   ar
     4     2     3   ar
     5     3     4   ar
     6     4     6    1
     7     6     7   ar
     8     7     8   ar
     9     8     9   ar
    10     9    10   ar
    11    10    11   ar
    12     4     5   ar
    13     5     1   ar
    14    11     6   ar
    15    12    14    1
@<TRIPOS>MOLECULE
*****
 14 15 0 0 0
SMALL
GASTEIGER

@<TRIPOS>ATOM
      1 C          60.5434   88.6191    9.9986 C.ar    1  UNL1        0.0479
      2 C          60.0553   87.7964    8.8432 C.ar    1  UNL1        0.0085
      3 C          60.7054   86.4472    8.9276 C.ar    1  UNL1        0.0071
      4 C          61.5953   86.4362   10.1351 C.ar    1  UNL1        0.0310
      5 S          61.4951   87.7784   10.7970 S.2     1  UNL1       -0.0853
      6 C          62.4374   85.2848   10.5991 C.ar    1  UNL1        0.0252
      7 C          63.2126   84.4735    9.6038 C.ar    1  UNL1        0.0036
      8 C          64.0547   83.3222   10.0679 C.ar    1  UNL1        0.0207
      9 C          64.1217   82.9823   11.5273 C.ar    1  UNL1        0.0989
     10 N          63.3465   83.7937   12.5227 N.ar    1  UNL1       -0.2423
     11 C          62.5044   84.9449   12.0586 C.ar    1  UNL1        0.0993
     12 N          59.8135   90.4339   11.7086 N.2     1  UNL1       -0.2964
     13 C          60.1489   90.0341   10.3023 C.2     1  UNL1        0.0951
     14 H          59.5546   91.3626   11.9079 H       1  UNL1        0.1868
@<TRIPOS>BOND
     1    12    13    2
     2    13     1    1
     3     1     2   ar
     4     2     3   ar
     5     3     4   ar
     6     4     6    1
     7     6     7   ar
     8     7     8   ar
     9     8     9   ar
    10     9    10   ar
    11    10    11   ar
    12     4     5   ar
    13     5     1   ar
    14    11     6   ar
    15    12    14    1
@<TRIPOS>MOLECULE
*****
 14 15 0 0 0
SMALL
GASTEIGER

@<TRIPOS>ATOM
      1 C          63.6959   83.6253   12.9248 C.ar    1  UNL1        0.0479
      2 C          64.2279   83.0731   11.6355 C.ar    1  UNL1        0.0085
      3 C          63.5719   83.8140   10.5083 C.ar    1  UNL1        0.0071
      4 C          62.6345   84.8240   11.1009 C.ar    1  UNL1        0.0310
      5 S          62.7111   84.7074   12.5944 S.2     1  UNL1       -0.0853
      6 C          61.7718   85.7825   10.3345 C.ar    1  UNL1        0.0252
      7 C          61.6965   85.6927    8.8391 C.ar    1  UNL1        0.0036
      8 C          60.8339   86.6511    8.0727 C.ar    1  UNL1        0.0207
      9 C          60.0465   87.6992    8.8018 C.ar    1  UNL1        0.0989
     10 N          60.1218   87.7890   10.2972 N.ar    1  UNL1       -0.2423
     11 C          60.9844   86.8306   11.0635 C.ar    1  UNL1        0.0993
     12 N          63.0283   82.6900   15.2550 N.2     1  UNL1       -0.2964
     13 C          64.0811   83.1744   14.3027 C.2     1  UNL1        0.0951
     14 H          63.2811   82.3941   16.1593 H       1  UNL1        0.1868
@<TRIPOS>BOND
     1    12    13    2
     2    13     1    1
     3     1     2   ar
     4     2     3   ar
     5     3     4   ar
     6     4     6    1
     7     6     7   ar
     8     7     8   ar
     9     8     9   ar
    10     9    10   ar
    11    10    11   ar
    12     4     5   ar
    13     5     1   ar
    14    11     6   ar
    15    12    14    1
@<TRIPOS>MOLECULE
*****
 14 15 0 0 0
SMALL
GASTEIGER

@<TRIPOS>ATOM
      1 C          60.2456   87.3127    9.0482 C.ar    1  UNL1        0.0479
      2 C          61.0497   86.2625    9.7559 C.ar    1  UNL1        0.0085
      3 C          62.0889   86.9558   10.5863 C.ar    1  UNL1        0.0071
      4 C          61.9271   88.4343   10.3917 C.ar    1  UNL1        0.0310
      5 S          60.7879   88.6548    9.4412 S.2     1  UNL1       -0.0853
      6 C          62.7586   89.5044   11.0349 C.ar    1  UNL1        0.0252
      7 C          63.1294   90.7337   10.2594 C.ar    1  UNL1        0.0036
      8 C          63.9608   91.8037   10.9026 C.ar    1  UNL1        0.0207
      9 C          64.4215   91.6445   12.3212 C.ar    1  UNL1        0.0989
     10 N          64.0507   90.4152   13.0967 N.ar    1  UNL1       -0.2423
     11 C          63.2193   89.3452   12.4535 C.ar    1  UNL1        0.0993
     12 N          58.5874   88.1742    7.2432 N.2     1  UNL1       -0.2964
     13 C          59.1004   87.0641    8.1119 C.2     1  UNL1        0.0951
     14 H          57.8357   88.0110    6.6287 H       1  UNL1        0.1868
@<TRIPOS>BOND
     1    12    13    2
     2    13     1    1
     3     1     2   ar
     4     2     3   ar
     5     3     4   ar
     6     4     6    1
     7     6     7   ar
     8     7     8   ar
     9     8     9   ar
    10     9    10   ar
    11    10    11   ar
    12     4     5   ar
    13     5     1   ar
    14    11     6   ar
    15    12    14    1
