@<TRIPOS>MOLECULE
*****
 41 46 0 0 0
SMALL
GASTEIGER

@<TRIPOS>ATOM
      1 C          64.3750   89.8995   13.7798 C.ar    1  UNL1        0.0251
      2 C          64.6690   88.5691   14.4070 C.ar    1  UNL1        0.0233
      3 C          63.8512   87.5312   13.6972 C.ar    1  UNL1        0.0918
      4 N          63.7312   86.0477   13.8837 N.ar    1  UNL1       -0.2262
      5 C          62.8117   85.2532   13.0043 C.ar    1  UNL1        0.1625
      6 N          62.0123   85.9421   11.9385 N.ar    1  UNL1       -0.2116
      7 C          62.1323   87.4256   11.7519 C.ar    1  UNL1        0.1409
      8 C          63.0517   88.2201   12.6313 C.ar    1  UNL1        0.0785
      9 S          63.3754   89.6839   12.6823 S.2     1  UNL1       -0.0856
     10 C          62.6917   83.7696   13.1909 C.2     1  UNL1        0.0506
     11 C          62.2080   83.2147   14.4978 C.2     1  UNL1        0.1420
     12 F          61.8442   84.1434   15.6182 F       1  UNL1       -0.2043
     13 C          62.0880   81.7312   14.6843 C.2     1  UNL1        0.0603
     14 C          62.4517   80.8026   13.5639 C.2     1  UNL1        0.1564
     15 F          62.3317   79.3191   13.7505 F       1  UNL1       -0.2028
     16 C          62.9355   81.3574   12.2569 C.2     1  UNL1        0.0944
     17 N          63.3637   80.6938   10.9817 N.2     1  UNL1       -0.2456
     18 C          63.7484   81.7671   10.0071 C.2     1  UNL1        0.0947
     19 C          63.5579   83.0941   10.6800 C.2     1  UNL1        0.0048
     20 C          63.0555   82.8409   12.0704 C.3     1  UNL1        0.0933
     21 N          61.3328   88.1146   10.6860 N.pl3   1  UNL1       -0.2876
     22 C          60.7495   89.4721   10.9454 C.3     1  UNL1        0.1243
     23 C          59.9501   90.1610    9.8796 C.3     1  UNL1        0.1636
     24 O          59.7338   89.4926    8.5542 O.3     1  UNL1       -0.3501
     25 C          60.3170   88.1352    8.2948 C.3     1  UNL1        0.1636
     26 C          61.1165   87.4461    9.3607 C.3     1  UNL1        0.1243
     27 C          64.9751   91.2148   14.1798 C.3     1  UNL1        0.1058
     28 N          65.9470   94.2915   11.0430 N.3     1  UNL1       -0.2655
     29 C          66.4935   94.4383   12.4322 C.3     1  UNL1        0.0900
     30 C          66.1695   93.4126   13.4778 C.3     1  UNL1        0.0899
     31 N          65.2991   92.2403   13.1342 N.3     1  UNL1       -0.2661
     32 C          64.7526   92.0937   11.7450 C.3     1  UNL1        0.0899
     33 C          65.0766   93.1192   10.6994 C.3     1  UNL1        0.0900
     34 C          67.1636   94.3298    9.3057 C.3     1  UNL1        0.0253
     35 C          66.2710   95.3171    9.9974 C.3     1  UNL1        0.1145
     36 C          65.3784   96.3043   10.6892 C.3     1  UNL1        0.0253
     37 C          66.5950   96.3425    8.9518 C.2     1  UNL1        0.2321
     38 N          67.9979   96.8551    8.8133 N.am    1  UNL1       -0.3278
     39 O          65.5161   96.8555    8.0446 O.2     1  UNL1       -0.2740
     40 H          68.7060   96.5184    9.4087 H       1  UNL1        0.1450
     41 H          68.2105   97.5282    8.1270 H       1  UNL1        0.1450
@<TRIPOS>BOND
     1    34    35    1
     2    35    36    1
     3    35    37    1
     4    37    38   am
     5    37    39    2
     6    35    28    1
     7    28    29    1
     8    29    30    1
     9    30    31    1
    10    31    27    1
    11    27     1    1
    12     1     2   ar
    13     2     3   ar
    14     3     4   ar
    15     4     5   ar
    16     5    10    1
    17    10    11    2
    18    11    12    1
    19    11    13    1
    20    13    14    2
    21    14    15    1
    22    14    16    1
    23    16    17    2
    24    17    18    1
    25    18    19    2
    26    19    20    1
    27     5     6   ar
    28     6     7   ar
    29     7    21    1
    30    21    22    1
    31    22    23    1
    32    23    24    1
    33    24    25    1
    34    25    26    1
    35     7     8   ar
    36     8     9   ar
    37    31    32    1
    38    32    33    1
    39    33    28    1
    40     9     1   ar
    41     8     3   ar
    42    20    10    1
    43    26    21    1
    44    20    16    1
    45    38    40    1
    46    38    41    1
@<TRIPOS>MOLECULE
*****
 41 46 0 0 0
SMALL
GASTEIGER

@<TRIPOS>ATOM
      1 C          59.6304   88.7563    8.0578 C.ar    1  UNL1        0.0251
      2 C          59.7087   87.2687    8.2338 C.ar    1  UNL1        0.0233
      3 C          60.7418   86.9798    9.2822 C.ar    1  UNL1        0.0918
      4 N          61.2448   85.6938    9.8681 N.ar    1  UNL1       -0.2262
      5 C          62.3081   85.7169   10.9259 C.ar    1  UNL1        0.1625
      6 N          62.8683   87.0258   11.3978 N.ar    1  UNL1       -0.2116
      7 C          62.3653   88.3117   10.8120 C.ar    1  UNL1        0.1409
      8 C          61.3021   88.2887    9.7542 C.ar    1  UNL1        0.0785
      9 S          60.6152   89.3867    8.9974 S.2     1  UNL1       -0.0856
     10 C          62.8112   84.4308   11.5119 C.2     1  UNL1        0.0506
     11 C          63.4294   83.3928   10.6229 C.2     1  UNL1        0.1420
     12 F          63.5446   83.6409    9.1480 F       1  UNL1       -0.2043
     13 C          63.9324   82.1069   11.2088 C.2     1  UNL1        0.0603
     14 C          63.8172   81.8589   12.6836 C.2     1  UNL1        0.1564
     15 F          64.3202   80.5730   13.2694 F       1  UNL1       -0.2028
     16 C          63.1989   82.8969   13.5726 C.2     1  UNL1        0.0944
     17 N          62.9516   82.9333   15.0517 N.2     1  UNL1       -0.2456
     18 C          62.2957   84.2418   15.3799 C.2     1  UNL1        0.0947
     19 C          62.1377   85.0141   14.1036 C.2     1  UNL1        0.0048
     20 C          62.6959   84.1829   12.9867 C.3     1  UNL1        0.0933
     21 N          62.9255   89.6207   11.2839 N.pl3   1  UNL1       -0.2876
     22 C          63.3155   90.6724   10.2879 C.3     1  UNL1        0.1243
     23 C          63.8757   91.9813   10.7598 C.3     1  UNL1        0.1636
     24 O          64.0460   92.2387   12.2278 O.3     1  UNL1       -0.3501
     25 C          63.6561   91.1871   13.2237 C.3     1  UNL1        0.1636
     26 C          63.0959   89.8780   12.7518 C.3     1  UNL1        0.1243
     27 C          58.7261   89.4855    7.1088 C.3     1  UNL1        0.1058
     28 N          60.4786   91.9544    3.7797 N.3     1  UNL1       -0.2655
     29 C          61.3276   90.9417    4.4893 C.3     1  UNL1        0.0900
     30 C          60.7434   90.1187    5.5990 C.3     1  UNL1        0.0899
     31 N          59.3103   90.3085    5.9991 N.3     1  UNL1       -0.2661
     32 C          58.4613   91.3213    5.2895 C.3     1  UNL1        0.0899
     33 C          59.0455   92.1442    4.1798 C.3     1  UNL1        0.0900
     34 C          59.7099   93.3625    2.3918 C.3     1  UNL1        0.0253
     35 C          61.0628   92.7774    2.6700 C.3     1  UNL1        0.1145
     36 C          62.4156   92.1923    2.9482 C.3     1  UNL1        0.0253
     37 C          61.6468   93.6004    1.5603 C.2     1  UNL1        0.2321
     38 N          63.0383   93.3235    1.0734 N.am    1  UNL1       -0.3278
     39 O          60.8394   94.7005    0.9374 O.2     1  UNL1       -0.2740
     40 H          63.5683   92.6015    1.4822 H       1  UNL1        0.1450
     41 H          63.4217   93.8636    0.3451 H       1  UNL1        0.1450
@<TRIPOS>BOND
     1    34    35    1
     2    35    36    1
     3    35    37    1
     4    37    38   am
     5    37    39    2
     6    35    28    1
     7    28    29    1
     8    29    30    1
     9    30    31    1
    10    31    27    1
    11    27     1    1
    12     1     2   ar
    13     2     3   ar
    14     3     4   ar
    15     4     5   ar
    16     5    10    1
    17    10    11    2
    18    11    12    1
    19    11    13    1
    20    13    14    2
    21    14    15    1
    22    14    16    1
    23    16    17    2
    24    17    18    1
    25    18    19    2
    26    19    20    1
    27     5     6   ar
    28     6     7   ar
    29     7    21    1
    30    21    22    1
    31    22    23    1
    32    23    24    1
    33    24    25    1
    34    25    26    1
    35     7     8   ar
    36     8     9   ar
    37    31    32    1
    38    32    33    1
    39    33    28    1
    40     9     1   ar
    41     8     3   ar
    42    20    10    1
    43    26    21    1
    44    20    16    1
    45    38    40    1
    46    38    41    1
