@<TRIPOS>MOLECULE
*****
 26 29 0 0 0
SMALL
GASTEIGER

@<TRIPOS>ATOM
      1 C          61.6784   88.3647   10.4494 C.3     1  UNL1        0.0327
      2 C          62.3802   87.4569   11.4156 C.ar    1  UNL1       -0.0025
      3 C          62.3214   85.9702   11.2257 C.ar    1  UNL1       -0.0027
      4 C          63.0231   85.0624   12.1918 C.ar    1  UNL1        0.0009
      5 C          63.7836   85.6413   13.3480 C.ar    1  UNL1        0.0031
      6 C          63.8424   87.1281   13.5378 C.ar    1  UNL1        0.0378
      7 C          64.5091   87.9818   14.5755 C.ar    1  UNL1        0.0965
      8 N          64.2194   89.4172   14.2506 N.ar    1  UNL1       -0.2513
      9 N          63.3736   89.4507   13.0122 N.ar    1  UNL1       -0.1696
     10 C          63.1406   88.0359   12.5717 C.ar    1  UNL1        0.0984
     11 C          62.9643   83.5756   12.0019 C.ar    1  UNL1        0.0119
     12 C          63.4242   82.9656   10.7110 C.ar    1  UNL1        0.0060
     13 C          63.3654   81.4789   10.5210 C.ar    1  UNL1        0.0608
     14 C          62.8468   80.6020   11.6221 C.ar    1  UNL1        0.2608
     15 O          62.7881   79.1153   11.4323 O.2     1  UNL1       -0.2670
     16 N          62.3870   81.2120   12.9130 N.ar    1  UNL1       -0.2972
     17 C          61.8684   80.3352   14.0142 C.3     1  UNL1        0.1332
     18 C          62.4458   82.6987   13.1029 C.ar    1  UNL1        0.0402
     19 C          61.9860   83.3088   14.3939 C.3     1  UNL1        0.0501
     20 C          64.6923   90.6099   15.0277 C.3     1  UNL1        0.1080
     21 C          65.9341   91.3368   14.6039 C.3     1  UNL1        0.0415
     22 C          66.4070   92.5295   15.3811 C.3     1  UNL1        0.0706
     23 N          65.6382   92.9952   16.5819 N.3     1  UNL1       -0.2974
     24 C          64.3965   92.2683   17.0057 C.3     1  UNL1        0.0706
     25 C          63.9235   91.0756   16.2285 C.3     1  UNL1        0.0415
     26 H          65.3665   93.9616   16.4010 H       1  UNL1        0.1232
@<TRIPOS>BOND
     1     1     2    1
     2     2     3   ar
     3     3     4   ar
     4     4    11    1
     5    11    12   ar
     6    12    13   ar
     7    13    14   ar
     8    14    15    2
     9    14    16   ar
    10    16    17    1
    11    16    18   ar
    12    18    19    1
    13     4     5   ar
    14     5     6   ar
    15     6     7   ar
    16     7     8   ar
    17     8    20    1
    18    20    21    1
    19    21    22    1
    20    22    23    1
    21    23    24    1
    22    24    25    1
    23     8     9   ar
    24     9    10   ar
    25    10     2   ar
    26    18    11   ar
    27    10     6   ar
    28    25    20    1
    29    23    26    1
@<TRIPOS>MOLECULE
*****
 26 29 0 0 0
SMALL
GASTEIGER

@<TRIPOS>ATOM
      1 C          61.6967   88.1996   10.2149 C.3     1  UNL1        0.0327
      2 C          62.3604   87.4804   11.3516 C.ar    1  UNL1       -0.0025
      3 C          62.1779   86.0002   11.5114 C.ar    1  UNL1       -0.0027
      4 C          62.8415   85.2810   12.6481 C.ar    1  UNL1        0.0009
      5 C          63.6878   86.0420   13.6252 C.ar    1  UNL1        0.0031
      6 C          63.8704   87.5223   13.4655 C.ar    1  UNL1        0.0378
      7 C          64.6404   88.5307   14.2656 C.ar    1  UNL1        0.0965
      8 N          64.4526   89.8731   13.6233 N.ar    1  UNL1       -0.2513
      9 N          63.5665   89.6944   12.4262 N.ar    1  UNL1       -0.1696
     10 C          63.2066   88.2415   12.3287 C.ar    1  UNL1        0.0984
     11 C          62.6589   83.8007   12.8078 C.ar    1  UNL1        0.0119
     12 C          62.1191   83.2459   14.0926 C.ar    1  UNL1        0.0060
     13 C          61.9365   81.7656   14.2524 C.ar    1  UNL1        0.0608
     14 C          62.2938   80.8402   13.1273 C.ar    1  UNL1        0.2608
     15 O          62.1113   79.3599   13.2869 O.2     1  UNL1       -0.2670
     16 N          62.8337   81.3950   11.8424 N.ar    1  UNL1       -0.2972
     17 C          63.1911   80.4695   10.7173 C.3     1  UNL1        0.1332
     18 C          63.0163   82.8752   11.6827 C.ar    1  UNL1        0.0402
     19 C          63.5561   83.4301   10.3979 C.3     1  UNL1        0.0501
     20 C          65.0465   91.1672   14.0951 C.3     1  UNL1        0.1080
     21 C          65.0774   91.4882   15.5600 C.3     1  UNL1        0.0415
     22 C          65.6714   92.7823   16.0318 C.3     1  UNL1        0.0706
     23 N          66.2345   93.7553   15.0388 N.3     1  UNL1       -0.2974
     24 C          66.2037   93.4342   13.5739 C.3     1  UNL1        0.0706
     25 C          65.6097   92.1401   13.1021 C.3     1  UNL1        0.0415
     26 H          67.2132   93.8976   15.2885 H       1  UNL1        0.1232
@<TRIPOS>BOND
     1     1     2    1
     2     2     3   ar
     3     3     4   ar
     4     4    11    1
     5    11    12   ar
     6    12    13   ar
     7    13    14   ar
     8    14    15    2
     9    14    16   ar
    10    16    17    1
    11    16    18   ar
    12    18    19    1
    13     4     5   ar
    14     5     6   ar
    15     6     7   ar
    16     7     8   ar
    17     8    20    1
    18    20    21    1
    19    21    22    1
    20    22    23    1
    21    23    24    1
    22    24    25    1
    23     8     9   ar
    24     9    10   ar
    25    10     2   ar
    26    18    11   ar
    27    10     6   ar
    28    25    20    1
    29    23    26    1
@<TRIPOS>MOLECULE
*****
 26 29 0 0 0
SMALL
GASTEIGER

@<TRIPOS>ATOM
      1 C          62.4109   89.9079   10.1087 C.3     1  UNL1        0.0327
      2 C          63.1857   90.1701   11.3661 C.ar    1  UNL1       -0.0025
      3 C          62.9739   89.3037   12.5720 C.ar    1  UNL1       -0.0027
      4 C          63.7486   89.5659   13.8293 C.ar    1  UNL1        0.0009
      5 C          64.7352   90.6947   13.8808 C.ar    1  UNL1        0.0031
      6 C          64.9470   91.5611   12.6748 C.ar    1  UNL1        0.0378
      7 C          65.8445   92.7377   12.4294 C.ar    1  UNL1        0.0965
      8 N          65.6243   93.2026   11.0204 N.ar    1  UNL1       -0.2513
      9 N          64.5909   92.3134   10.3949 N.ar    1  UNL1       -0.1696
     10 C          64.1722   91.2989   11.4174 C.ar    1  UNL1        0.0984
     11 C          63.5368   88.6994   15.0354 C.ar    1  UNL1        0.0119
     12 C          63.1473   89.3188   16.3448 C.ar    1  UNL1        0.0060
     13 C          62.9355   88.4524   17.5508 C.ar    1  UNL1        0.0608
     14 C          63.1132   86.9665   17.4473 C.ar    1  UNL1        0.2608
     15 O          62.9014   86.1000   18.6532 O.2     1  UNL1       -0.2670
     16 N          63.5027   86.3471   16.1379 N.ar    1  UNL1       -0.2972
     17 C          63.6804   84.8612   16.0343 C.3     1  UNL1        0.1332
     18 C          63.7145   87.2136   14.9319 C.ar    1  UNL1        0.0402
     19 C          64.1039   86.5943   13.6224 C.3     1  UNL1        0.0501
     20 C          66.3162   94.3545   10.3537 C.3     1  UNL1        0.1080
     21 C          66.3415   95.6998   11.0169 C.3     1  UNL1        0.0415
     22 C          67.0334   96.8517   10.3502 C.3     1  UNL1        0.0706
     23 N          67.7000   96.6584    9.0204 N.3     1  UNL1       -0.2974
     24 C          67.6747   95.3132    8.3573 C.3     1  UNL1        0.0706
     25 C          66.9828   94.1613    9.0240 C.3     1  UNL1        0.0415
     26 H          68.6814   96.9073    9.1441 H       1  UNL1        0.1232
@<TRIPOS>BOND
     1     1     2    1
     2     2     3   ar
     3     3     4   ar
     4     4    11    1
     5    11    12   ar
     6    12    13   ar
     7    13    14   ar
     8    14    15    2
     9    14    16   ar
    10    16    17    1
    11    16    18   ar
    12    18    19    1
    13     4     5   ar
    14     5     6   ar
    15     6     7   ar
    16     7     8   ar
    17     8    20    1
    18    20    21    1
    19    21    22    1
    20    22    23    1
    21    23    24    1
    22    24    25    1
    23     8     9   ar
    24     9    10   ar
    25    10     2   ar
    26    18    11   ar
    27    10     6   ar
    28    25    20    1
    29    23    26    1
@<TRIPOS>MOLECULE
*****
 26 29 0 0 0
SMALL
GASTEIGER

@<TRIPOS>ATOM
      1 C          61.0479   88.1297   10.3288 C.3     1  UNL1        0.0327
      2 C          62.1114   88.0973   11.3862 C.ar    1  UNL1       -0.0025
      3 C          62.8106   89.3628   11.7856 C.ar    1  UNL1       -0.0027
      4 C          63.8740   89.3304   12.8429 C.ar    1  UNL1        0.0009
      5 C          64.2383   88.0325   13.5009 C.ar    1  UNL1        0.0031
      6 C          63.5390   86.7671   13.1015 C.ar    1  UNL1        0.0378
      7 C          63.6837   85.3495   13.5702 C.ar    1  UNL1        0.0965
      8 N          62.7097   84.5058   12.8025 N.ar    1  UNL1       -0.2513
      9 N          61.9630   85.4019   11.8593 N.ar    1  UNL1       -0.1696
     10 C          62.4756   86.7994   12.0441 C.ar    1  UNL1        0.0984
     11 C          64.5732   90.5960   13.2424 C.ar    1  UNL1        0.0119
     12 C          65.0491   90.7767   14.6534 C.ar    1  UNL1        0.0060
     13 C          65.7483   92.0422   15.0529 C.ar    1  UNL1        0.0608
     14 C          65.9717   93.1270   14.0413 C.ar    1  UNL1        0.2608
     15 O          66.6709   94.3925   14.4407 O.2     1  UNL1       -0.2670
     16 N          65.4958   92.9463   12.6303 N.ar    1  UNL1       -0.2972
     17 C          65.7192   94.0312   11.6187 C.3     1  UNL1        0.1332
     18 C          64.7966   91.6809   12.2309 C.ar    1  UNL1        0.0402
     19 C          64.3207   91.5001   10.8198 C.3     1  UNL1        0.0501
     20 C          62.5162   83.0259   12.9517 C.3     1  UNL1        0.1080
     21 C          61.8858   82.4735   14.1957 C.3     1  UNL1        0.0415
     22 C          61.6924   80.9935   14.3448 C.3     1  UNL1        0.0706
     23 N          62.1294   80.0659   13.2501 N.3     1  UNL1       -0.2974
     24 C          62.7598   80.6182   12.0061 C.3     1  UNL1        0.0706
     25 C          62.9532   82.0982   11.8569 C.3     1  UNL1        0.0415
     26 H          61.3018   79.5475   12.9555 H       1  UNL1        0.1232
@<TRIPOS>BOND
     1     1     2    1
     2     2     3   ar
     3     3     4   ar
     4     4    11    1
     5    11    12   ar
     6    12    13   ar
     7    13    14   ar
     8    14    15    2
     9    14    16   ar
    10    16    17    1
    11    16    18   ar
    12    18    19    1
    13     4     5   ar
    14     5     6   ar
    15     6     7   ar
    16     7     8   ar
    17     8    20    1
    18    20    21    1
    19    21    22    1
    20    22    23    1
    21    23    24    1
    22    24    25    1
    23     8     9   ar
    24     9    10   ar
    25    10     2   ar
    26    18    11   ar
    27    10     6   ar
    28    25    20    1
    29    23    26    1
@<TRIPOS>MOLECULE
*****
 26 29 0 0 0
SMALL
GASTEIGER

@<TRIPOS>ATOM
      1 C          62.7482   87.2013   17.7589 C.3     1  UNL1        0.0327
      2 C          63.2516   87.4257   16.3638 C.ar    1  UNL1       -0.0025
      3 C          63.7701   88.7744   15.9614 C.ar    1  UNL1       -0.0027
      4 C          64.2735   88.9988   14.5664 C.ar    1  UNL1        0.0009
      5 C          64.2583   87.8744   13.5736 C.ar    1  UNL1        0.0031
      6 C          63.7398   86.5256   13.9760 C.ar    1  UNL1        0.0378
      7 C          63.6022   85.2370   13.2207 C.ar    1  UNL1        0.0965
      8 N          63.0139   84.2162   14.1491 N.ar    1  UNL1       -0.2513
      9 N          62.7878   84.8739   15.4781 N.ar    1  UNL1       -0.1696
     10 C          63.2364   86.3013   15.3711 C.ar    1  UNL1        0.0984
     11 C          64.7921   90.3476   14.1640 C.ar    1  UNL1        0.0119
     12 C          65.6610   91.1284   15.1049 C.ar    1  UNL1        0.0060
     13 C          66.1796   92.4771   14.7026 C.ar    1  UNL1        0.0608
     14 C          65.8292   93.0452   13.3592 C.ar    1  UNL1        0.2608
     15 O          66.3477   94.3939   12.9568 O.2     1  UNL1       -0.2670
     16 N          64.9602   92.2644   12.4183 N.ar    1  UNL1       -0.2972
     17 C          64.6098   92.8324   11.0749 C.3     1  UNL1        0.1332
     18 C          64.4417   90.9157   12.8207 C.ar    1  UNL1        0.0402
     19 C          63.5727   90.1349   11.8798 C.3     1  UNL1        0.0501
     20 C          62.7057   82.7883   13.8083 C.3     1  UNL1        0.1080
     21 C          63.4890   82.0867   12.7386 C.3     1  UNL1        0.0415
     22 C          63.1808   80.6587   12.3979 C.3     1  UNL1        0.0706
     23 N          62.0893   79.9324   13.1267 N.3     1  UNL1       -0.2974
     24 C          61.3060   80.6341   14.1964 C.3     1  UNL1        0.0706
     25 C          61.6143   82.0620   14.5371 C.3     1  UNL1        0.0415
     26 H          62.5189   79.1169   13.5634 H       1  UNL1        0.1232
@<TRIPOS>BOND
     1     1     2    1
     2     2     3   ar
     3     3     4   ar
     4     4    11    1
     5    11    12   ar
     6    12    13   ar
     7    13    14   ar
     8    14    15    2
     9    14    16   ar
    10    16    17    1
    11    16    18   ar
    12    18    19    1
    13     4     5   ar
    14     5     6   ar
    15     6     7   ar
    16     7     8   ar
    17     8    20    1
    18    20    21    1
    19    21    22    1
    20    22    23    1
    21    23    24    1
    22    24    25    1
    23     8     9   ar
    24     9    10   ar
    25    10     2   ar
    26    18    11   ar
    27    10     6   ar
    28    25    20    1
    29    23    26    1
@<TRIPOS>MOLECULE
*****
 26 29 0 0 0
SMALL
GASTEIGER

@<TRIPOS>ATOM
      1 C          61.1071   87.8570   10.1471 C.3     1  UNL1        0.0327
      2 C          62.1071   87.8449   11.2651 C.ar    1  UNL1       -0.0025
      3 C          62.7568   89.1236   11.7041 C.ar    1  UNL1       -0.0027
      4 C          63.7567   89.1115   12.8221 C.ar    1  UNL1        0.0009
      5 C          64.1070   87.8206   13.5011 C.ar    1  UNL1        0.0031
      6 C          63.4573   86.5419   13.0620 C.ar    1  UNL1        0.0378
      7 C          63.6020   85.1272   13.5392 C.ar    1  UNL1        0.0965
      8 N          62.6914   84.2650   12.7162 N.ar    1  UNL1       -0.2513
      9 N          61.9840   85.1468   11.7303 N.ar    1  UNL1       -0.1696
     10 C          62.4574   86.5540   11.9440 C.ar    1  UNL1        0.0984
     11 C          64.4064   90.3903   13.2611 C.ar    1  UNL1        0.0119
     12 C          65.0405   91.2960   12.2474 C.ar    1  UNL1        0.0060
     13 C          65.6902   92.5747   12.6864 C.ar    1  UNL1        0.0608
     14 C          65.7057   92.9477   14.1392 C.ar    1  UNL1        0.2608
     15 O          66.3554   94.2264   14.5783 O.2     1  UNL1       -0.2670
     16 N          65.0716   92.0420   15.1530 N.ar    1  UNL1       -0.2972
     17 C          65.0871   92.4151   16.6058 C.3     1  UNL1        0.1332
     18 C          64.4219   90.7633   14.7139 C.ar    1  UNL1        0.0402
     19 C          63.7878   89.8576   15.7276 C.3     1  UNL1        0.0501
     20 C          62.5186   82.7815   12.8547 C.3     1  UNL1        0.1080
     21 C          62.9883   81.8665   11.7628 C.3     1  UNL1        0.0415
     22 C          62.8154   80.3829   11.9014 C.3     1  UNL1        0.0706
     23 N          62.1728   79.8143   13.1317 N.3     1  UNL1       -0.2974
     24 C          61.7031   80.7293   14.2236 C.3     1  UNL1        0.0706
     25 C          61.8760   82.2129   14.0850 C.3     1  UNL1        0.0415
     26 H          62.8514   79.1790   13.5515 H       1  UNL1        0.1232
@<TRIPOS>BOND
     1     1     2    1
     2     2     3   ar
     3     3     4   ar
     4     4    11    1
     5    11    12   ar
     6    12    13   ar
     7    13    14   ar
     8    14    15    2
     9    14    16   ar
    10    16    17    1
    11    16    18   ar
    12    18    19    1
    13     4     5   ar
    14     5     6   ar
    15     6     7   ar
    16     7     8   ar
    17     8    20    1
    18    20    21    1
    19    21    22    1
    20    22    23    1
    21    23    24    1
    22    24    25    1
    23     8     9   ar
    24     9    10   ar
    25    10     2   ar
    26    18    11   ar
    27    10     6   ar
    28    25    20    1
    29    23    26    1
@<TRIPOS>MOLECULE
*****
 26 29 0 0 0
SMALL
GASTEIGER

@<TRIPOS>ATOM
      1 C          63.7251   85.0399   14.4189 C.3     1  UNL1        0.0327
      2 C          63.4543   86.0146   13.3114 C.ar    1  UNL1       -0.0025
      3 C          62.9271   85.5262   11.9947 C.ar    1  UNL1       -0.0027
      4 C          62.6563   86.5008   10.8873 C.ar    1  UNL1        0.0009
      5 C          62.9127   87.9640   11.0963 C.ar    1  UNL1        0.0031
      6 C          63.4399   88.4523   12.4130 C.ar    1  UNL1        0.0378
      7 C          63.7864   89.8250   12.9084 C.ar    1  UNL1        0.0965
      8 N          64.2714   89.6987   14.3222 N.ar    1  UNL1       -0.2513
      9 N          64.2246   88.2479   14.7005 N.ar    1  UNL1       -0.1696
     10 C          63.7107   87.4776   13.5205 C.ar    1  UNL1        0.0984
     11 C          62.1291   86.0125    9.5705 C.ar    1  UNL1        0.0119
     12 C          62.9589   85.0923    8.7251 C.ar    1  UNL1        0.0060
     13 C          62.4318   84.6039    7.4085 C.ar    1  UNL1        0.0608
     14 C          61.0748   85.0357    6.9372 C.ar    1  UNL1        0.2608
     15 O          60.5475   84.5474    5.6206 O.2     1  UNL1       -0.2670
     16 N          60.2449   85.9558    7.7826 N.ar    1  UNL1       -0.2972
     17 C          58.8878   86.3877    7.3114 C.3     1  UNL1        0.1332
     18 C          60.7721   86.4442    9.0993 C.ar    1  UNL1        0.0402
     19 C          59.9423   87.3644    9.9448 C.3     1  UNL1        0.0501
     20 C          64.7238   90.8254   15.2032 C.3     1  UNL1        0.1080
     21 C          63.8606   91.2796   16.3427 C.3     1  UNL1        0.0415
     22 C          64.3131   92.4062   17.2236 C.3     1  UNL1        0.0706
     23 N          65.6287   93.0787   16.9649 N.3     1  UNL1       -0.2974
     24 C          66.4919   92.6245   15.8254 C.3     1  UNL1        0.0706
     25 C          66.0394   91.4978   14.9445 C.3     1  UNL1        0.0415
     26 H          66.1840   92.9757   17.8143 H       1  UNL1        0.1232
@<TRIPOS>BOND
     1     1     2    1
     2     2     3   ar
     3     3     4   ar
     4     4    11    1
     5    11    12   ar
     6    12    13   ar
     7    13    14   ar
     8    14    15    2
     9    14    16   ar
    10    16    17    1
    11    16    18   ar
    12    18    19    1
    13     4     5   ar
    14     5     6   ar
    15     6     7   ar
    16     7     8   ar
    17     8    20    1
    18    20    21    1
    19    21    22    1
    20    22    23    1
    21    23    24    1
    22    24    25    1
    23     8     9   ar
    24     9    10   ar
    25    10     2   ar
    26    18    11   ar
    27    10     6   ar
    28    25    20    1
    29    23    26    1
@<TRIPOS>MOLECULE
*****
 26 29 0 0 0
SMALL
GASTEIGER

@<TRIPOS>ATOM
      1 C          44.8784   72.9267   20.1315 C.3     1  UNL1        0.0327
      2 C          44.9107   73.9244   19.0118 C.ar    1  UNL1       -0.0025
      3 C          44.9074   75.3932   19.3158 C.ar    1  UNL1       -0.0027
      4 C          44.9397   76.3909   18.1962 C.ar    1  UNL1        0.0009
      5 C          44.9754   75.9197   16.7725 C.ar    1  UNL1        0.0031
      6 C          44.9787   74.4509   16.4686 C.ar    1  UNL1        0.0378
      7 C          45.0101   73.6939   15.1739 C.ar    1  UNL1        0.0965
      8 N          44.9972   72.2284   15.4935 N.ar    1  UNL1       -0.2513
      9 N          44.9578   72.0796   16.9856 N.ar    1  UNL1       -0.1696
     10 C          44.9464   73.4532   17.5882 C.ar    1  UNL1        0.0984
     11 C          44.9364   77.8598   18.5002 C.ar    1  UNL1        0.0119
     12 C          43.6366   78.6013   18.6037 C.ar    1  UNL1        0.0060
     13 C          43.6332   80.0702   18.9077 C.ar    1  UNL1        0.0608
     14 C          44.9296   80.7975   19.1082 C.ar    1  UNL1        0.2608
     15 O          44.9264   82.2664   19.4122 O.2     1  UNL1       -0.2670
     16 N          46.2294   80.0560   19.0048 N.ar    1  UNL1       -0.2972
     17 C          47.5260   80.7833   19.2053 C.3     1  UNL1        0.1332
     18 C          46.2328   78.5871   18.7008 C.ar    1  UNL1        0.0402
     19 C          47.5326   77.8455   18.5973 C.3     1  UNL1        0.0501
     20 C          45.0197   71.1083   14.4960 C.3     1  UNL1        0.1080
     21 C          43.7992   70.8085   13.6772 C.3     1  UNL1        0.0415
     22 C          43.8218   69.6884   12.6798 C.3     1  UNL1        0.0706
     23 N          45.0648   68.8681   12.5012 N.3     1  UNL1       -0.2974
     24 C          46.2853   69.1678   13.3200 C.3     1  UNL1        0.0706
     25 C          46.2627   70.2880   14.3174 C.3     1  UNL1        0.0415
     26 H          45.3379   68.9565   11.5224 H       1  UNL1        0.1232
@<TRIPOS>BOND
     1     1     2    1
     2     2     3   ar
     3     3     4   ar
     4     4    11    1
     5    11    12   ar
     6    12    13   ar
     7    13    14   ar
     8    14    15    2
     9    14    16   ar
    10    16    17    1
    11    16    18   ar
    12    18    19    1
    13     4     5   ar
    14     5     6   ar
    15     6     7   ar
    16     7     8   ar
    17     8    20    1
    18    20    21    1
    19    21    22    1
    20    22    23    1
    21    23    24    1
    22    24    25    1
    23     8     9   ar
    24     9    10   ar
    25    10     2   ar
    26    18    11   ar
    27    10     6   ar
    28    25    20    1
    29    23    26    1
@<TRIPOS>MOLECULE
*****
 26 29 0 0 0
SMALL
GASTEIGER

@<TRIPOS>ATOM
      1 C          62.2527   90.3042   11.5086 C.3     1  UNL1        0.0327
      2 C          61.9111   89.0034   10.8443 C.ar    1  UNL1       -0.0025
      3 C          62.3296   87.7075   11.4731 C.ar    1  UNL1       -0.0027
      4 C          61.9881   86.4068   10.8089 C.ar    1  UNL1        0.0009
      5 C          61.2280   86.4018    9.5157 C.ar    1  UNL1        0.0031
      6 C          60.8095   87.6977    8.8868 C.ar    1  UNL1        0.0378
      7 C          60.0567   88.0046    7.6262 C.ar    1  UNL1        0.0965
      8 N          59.9331   89.4951    7.5114 N.ar    1  UNL1       -0.2513
      9 N          60.6094   90.1094    8.7011 N.ar    1  UNL1       -0.1696
     10 C          61.1510   88.9985    9.5511 C.ar    1  UNL1        0.0984
     11 C          62.4066   85.1108   11.4378 C.ar    1  UNL1        0.0119
     12 C          62.1622   84.8725   12.8984 C.ar    1  UNL1        0.0060
     13 C          62.5807   83.5766   13.5273 C.ar    1  UNL1        0.0608
     14 C          63.2437   82.5190   12.6955 C.ar    1  UNL1        0.2608
     15 O          63.6622   81.2231   13.3242 O.2     1  UNL1       -0.2670
     16 N          63.4881   82.7573   11.2348 N.ar    1  UNL1       -0.2972
     17 C          64.1511   81.6996   10.4029 C.3     1  UNL1        0.1332
     18 C          63.0696   84.0532   10.6060 C.ar    1  UNL1        0.0402
     19 C          63.3140   84.2915    9.1453 C.3     1  UNL1        0.0501
     20 C          59.2526   90.2405    6.4017 C.3     1  UNL1        0.1080
     21 C          57.7605   90.1789    6.2616 C.3     1  UNL1        0.0415
     22 C          57.0801   90.9244    5.1518 C.3     1  UNL1        0.0706
     23 N          57.8918   91.7313    4.1823 N.3     1  UNL1       -0.2974
     24 C          59.3839   91.7929    4.3225 C.3     1  UNL1        0.0706
     25 C          60.0643   91.0474    5.4322 C.3     1  UNL1        0.0415
     26 H          57.5508   92.6909    4.2400 H       1  UNL1        0.1232
@<TRIPOS>BOND
     1     1     2    1
     2     2     3   ar
     3     3     4   ar
     4     4    11    1
     5    11    12   ar
     6    12    13   ar
     7    13    14   ar
     8    14    15    2
     9    14    16   ar
    10    16    17    1
    11    16    18   ar
    12    18    19    1
    13     4     5   ar
    14     5     6   ar
    15     6     7   ar
    16     7     8   ar
    17     8    20    1
    18    20    21    1
    19    21    22    1
    20    22    23    1
    21    23    24    1
    22    24    25    1
    23     8     9   ar
    24     9    10   ar
    25    10     2   ar
    26    18    11   ar
    27    10     6   ar
    28    25    20    1
    29    23    26    1
