@<TRIPOS>MOLECULE
*****
 34 37 0 0 0
SMALL
GASTEIGER

@<TRIPOS>ATOM
      1 C          61.5989   88.5518   10.5433 C.ar    1  UNL1        0.0951
      2 C          60.5774   88.6869    9.4533 C.ar    1  UNL1        0.1454
      3 F          59.7344   89.9244    9.3645 F       1  UNL1       -0.2040
      4 C          60.3988   87.5844    8.4520 C.ar    1  UNL1        0.0312
      5 C          61.2418   86.3468    8.5408 C.ar    1  UNL1        0.0204
      6 C          62.2633   86.2117    9.6308 C.ar    1  UNL1        0.0924
      7 C          62.4418   87.3142   10.6321 C.ar    1  UNL1        0.1598
      8 F          63.4634   87.1792   11.7222 F       1  UNL1       -0.2026
      9 O          60.8335   89.7745   12.7041 O.2     1  UNL1       -0.2864
     10 C          61.7775   89.6543   11.5447 C.2     1  UNL1        0.2016
     11 C          62.9001   90.6365   11.3865 C.ar    1  UNL1        0.0620
     12 C          63.1561   91.4968   10.1847 C.ar    1  UNL1        0.1038
     13 N          64.3781   92.3229   10.4579 N.ar    1  UNL1       -0.2268
     14 C          64.8772   91.9731   11.8285 C.ar    1  UNL1        0.1415
     15 N          66.0454   92.4689   12.6280 N.ar    1  UNL1       -0.3374
     16 C          66.3002   91.9225   14.0015 C.ar    1  UNL1        0.0744
     17 C          65.3868   90.8803   14.5754 C.ar    1  UNL1        0.0300
     18 C          64.2186   90.3844   13.7759 C.ar    1  UNL1        0.0622
     19 CL         63.3051   89.3422   14.3498 Cl      1  UNL1       -0.0821
     20 C          63.9638   90.9308   12.4024 C.ar    1  UNL1        0.0491
     21 H          66.6450   93.1529   12.2513 H       1  UNL1        0.1674
     22 N          63.1062   84.9742    9.7196 N.pl3   1  UNL1       -0.2127
     23 H          63.7566   84.7696    9.0094 H       1  UNL1        0.1738
     24 S          62.9582   84.0483   10.8904 S.O2    1  UNL1        0.0759
     25 O          61.6534   84.7000   11.2408 O.2     1  UNL1       -0.1499
     26 O          64.2630   83.3966   10.5400 O.2     1  UNL1       -0.1499
     27 C          62.8103   83.1224   12.0612 C.ar    1  UNL1        0.1547
     28 C          62.6287   81.6506   11.8352 C.ar    1  UNL1        0.0521
     29 C          62.4808   80.7246   13.0059 C.ar    1  UNL1        0.1416
     30 F          62.2992   79.2529   12.7799 F       1  UNL1       -0.2041
     31 C          62.5144   81.2704   14.4027 C.ar    1  UNL1        0.0320
     32 C          62.6960   82.7421   14.6287 C.ar    1  UNL1        0.0333
     33 C          62.8439   83.6681   13.4579 C.ar    1  UNL1        0.1590
     34 F          63.0255   85.1398   13.6840 F       1  UNL1       -0.2027
@<TRIPOS>BOND
     1     9    10    2
     2    10     1    1
     3     1     2   ar
     4     2     3    1
     5     2     4   ar
     6     4     5   ar
     7     5     6   ar
     8     6    22    1
     9    22    24    1
    10    24    25    2
    11    24    26    2
    12    24    27    1
    13    27    28   ar
    14    28    29   ar
    15    29    30    1
    16    29    31   ar
    17    31    32   ar
    18    32    33   ar
    19    33    34    1
    20     6     7   ar
    21     7     8    1
    22    10    11    1
    23    11    12   ar
    24    12    13   ar
    25    13    14   ar
    26    14    15   ar
    27    15    16   ar
    28    16    17   ar
    29    17    18   ar
    30    18    19    1
    31    18    20   ar
    32     7     1   ar
    33    20    11   ar
    34    33    27   ar
    35    20    14    1
    36    22    23    1
    37    15    21    1
@<TRIPOS>MOLECULE
*****
 34 37 0 0 0
SMALL
GASTEIGER

@<TRIPOS>ATOM
      1 C          61.5807   88.5572   10.5532 C.ar    1  UNL1        0.0951
      2 C          60.5416   88.7182    9.4834 C.ar    1  UNL1        0.1454
      3 F          59.7000   89.9589    9.4360 F       1  UNL1       -0.2040
      4 C          60.3442   87.6384    8.4611 C.ar    1  UNL1        0.0312
      5 C          61.1858   86.3977    8.5086 C.ar    1  UNL1        0.0204
      6 C          62.2249   86.2367    9.5783 C.ar    1  UNL1        0.0924
      7 C          62.4223   87.3165   10.6006 C.ar    1  UNL1        0.1598
      8 F          63.4614   87.1555   11.6705 F       1  UNL1       -0.2026
      9 O          60.8563   89.7305   12.7551 O.2     1  UNL1       -0.2864
     10 C          61.7781   89.6370   11.5756 C.2     1  UNL1        0.2016
     11 C          62.8974   90.6231   11.4184 C.ar    1  UNL1        0.0620
     12 C          63.1392   91.4995   10.2253 C.ar    1  UNL1        0.1038
     13 N          64.3626   92.3240   10.4962 N.ar    1  UNL1       -0.2268
     14 C          64.8770   91.9571   11.8567 C.ar    1  UNL1        0.1415
     15 N          66.0529   92.4445   12.6501 N.ar    1  UNL1       -0.3374
     16 C          66.3233   91.8806   14.0135 C.ar    1  UNL1        0.0744
     17 C          65.4177   90.8294   14.5834 C.ar    1  UNL1        0.0300
     18 C          64.2418   90.3420   13.7900 C.ar    1  UNL1        0.0622
     19 CL         63.3362   89.2908   14.3599 Cl      1  UNL1       -0.0821
     20 C          63.9714   90.9059   12.4266 C.ar    1  UNL1        0.0491
     21 H          66.6473   93.1344   12.2760 H       1  UNL1        0.1674
     22 N          63.0665   84.9960    9.6258 N.pl3   1  UNL1       -0.2127
     23 H          63.6865   84.7932    8.8884 H       1  UNL1        0.1738
     24 S          62.9635   84.0642   10.7967 S.O2    1  UNL1        0.0759
     25 O          61.6418   84.6711   11.1634 O.2     1  UNL1       -0.1499
     26 O          64.2853   83.4572   10.4300 O.2     1  UNL1       -0.1499
     27 C          62.8606   83.1323   11.9676 C.ar    1  UNL1        0.1547
     28 C          62.7648   83.6842   13.3591 C.ar    1  UNL1        0.0521
     29 C          62.6619   82.7524   14.5301 C.ar    1  UNL1        0.1416
     30 F          62.5660   83.3043   15.9216 F       1  UNL1       -0.2041
     31 C          62.6547   81.2687   14.3096 C.ar    1  UNL1        0.0320
     32 C          62.7506   80.7169   12.9180 C.ar    1  UNL1        0.0333
     33 C          62.8535   81.6487   11.7471 C.ar    1  UNL1        0.1590
     34 F          62.9493   81.0968   10.3556 F       1  UNL1       -0.2027
@<TRIPOS>BOND
     1     9    10    2
     2    10     1    1
     3     1     2   ar
     4     2     3    1
     5     2     4   ar
     6     4     5   ar
     7     5     6   ar
     8     6    22    1
     9    22    24    1
    10    24    25    2
    11    24    26    2
    12    24    27    1
    13    27    28   ar
    14    28    29   ar
    15    29    30    1
    16    29    31   ar
    17    31    32   ar
    18    32    33   ar
    19    33    34    1
    20     6     7   ar
    21     7     8    1
    22    10    11    1
    23    11    12   ar
    24    12    13   ar
    25    13    14   ar
    26    14    15   ar
    27    15    16   ar
    28    16    17   ar
    29    17    18   ar
    30    18    19    1
    31    18    20   ar
    32     7     1   ar
    33    20    11   ar
    34    33    27   ar
    35    20    14    1
    36    22    23    1
    37    15    21    1
@<TRIPOS>MOLECULE
*****
 34 37 0 0 0
SMALL
GASTEIGER

@<TRIPOS>ATOM
      1 C          63.8273   88.7468   14.9049 C.ar    1  UNL1        0.0951
      2 C          63.2624   89.4110   16.1255 C.ar    1  UNL1        0.1454
      3 F          63.0269   90.8923   16.1321 F       1  UNL1       -0.2040
      4 C          62.9331   88.5937   17.3394 C.ar    1  UNL1        0.0312
      5 C          63.1686   87.1123   17.3328 C.ar    1  UNL1        0.0204
      6 C          63.7335   86.4482   16.1122 C.ar    1  UNL1        0.0924
      7 C          64.0629   87.2654   14.8983 C.ar    1  UNL1        0.1598
      8 F          64.6278   86.6013   13.6777 F       1  UNL1       -0.2026
      9 O          63.5414   89.2213   12.3667 O.2     1  UNL1       -0.2864
     10 C          64.1567   89.5640   13.6909 C.2     1  UNL1        0.2016
     11 C          65.1014   90.7239   13.8013 C.ar    1  UNL1        0.0620
     12 C          66.0107   91.0134   14.9587 C.ar    1  UNL1        0.1038
     13 N          66.7739   92.2663   14.6464 N.ar    1  UNL1       -0.2268
     14 C          66.3364   92.7513   13.2961 C.ar    1  UNL1        0.1415
     15 N          66.7456   93.9377   12.4746 N.ar    1  UNL1       -0.3374
     16 C          66.1211   94.1709   11.1309 C.ar    1  UNL1        0.0744
     17 C          65.0875   93.2176   10.6086 C.ar    1  UNL1        0.0300
     18 C          64.6782   92.0312   11.4301 C.ar    1  UNL1        0.0622
     19 CL         63.6445   91.0779   10.9078 Cl      1  UNL1       -0.0821
     20 C          65.3027   91.7980   12.7738 C.ar    1  UNL1        0.0491
     21 H          67.4240   94.5634   12.8174 H       1  UNL1        0.1674
     22 N          63.9690   84.9668   16.1056 N.pl3   1  UNL1       -0.2127
     23 H          64.2851   84.5150   16.9212 H       1  UNL1        0.1738
     24 S          63.7230   84.1738   14.8564 S.O2    1  UNL1        0.0759
     25 O          65.1636   83.7563   14.8376 O.2     1  UNL1       -0.1499
     26 O          62.2824   84.5914   14.8751 O.2     1  UNL1       -0.1499
     27 C          63.4768   83.3809   13.6071 C.ar    1  UNL1        0.1547
     28 C          64.1438   83.7776   12.3234 C.ar    1  UNL1        0.0521
     29 C          63.8977   82.9847   11.0741 C.ar    1  UNL1        0.1416
     30 F          64.5646   83.3815    9.7904 F       1  UNL1       -0.2041
     31 C          62.9846   81.7951   11.1084 C.ar    1  UNL1        0.0320
     32 C          62.3177   81.3985   12.3922 C.ar    1  UNL1        0.0333
     33 C          62.5638   82.1913   13.6415 C.ar    1  UNL1        0.1590
     34 F          61.8968   81.7946   14.9251 F       1  UNL1       -0.2027
@<TRIPOS>BOND
     1     9    10    2
     2    10     1    1
     3     1     2   ar
     4     2     3    1
     5     2     4   ar
     6     4     5   ar
     7     5     6   ar
     8     6    22    1
     9    22    24    1
    10    24    25    2
    11    24    26    2
    12    24    27    1
    13    27    28   ar
    14    28    29   ar
    15    29    30    1
    16    29    31   ar
    17    31    32   ar
    18    32    33   ar
    19    33    34    1
    20     6     7   ar
    21     7     8    1
    22    10    11    1
    23    11    12   ar
    24    12    13   ar
    25    13    14   ar
    26    14    15   ar
    27    15    16   ar
    28    16    17   ar
    29    17    18   ar
    30    18    19    1
    31    18    20   ar
    32     7     1   ar
    33    20    11   ar
    34    33    27   ar
    35    20    14    1
    36    22    23    1
    37    15    21    1
@<TRIPOS>MOLECULE
*****
 34 37 0 0 0
SMALL
GASTEIGER

@<TRIPOS>ATOM
      1 C          63.4700   89.4587   12.2872 C.ar    1  UNL1        0.0951
      2 C          62.6002   89.1832   11.0966 C.ar    1  UNL1        0.1454
      3 F          62.2236   90.2998   10.1684 F       1  UNL1       -0.2040
      4 C          62.1072   87.7911   10.8341 C.ar    1  UNL1        0.0312
      5 C          62.4838   86.6746   11.7623 C.ar    1  UNL1        0.0204
      6 C          63.3535   86.9501   12.9529 C.ar    1  UNL1        0.0924
      7 C          63.8466   88.3422   13.2154 C.ar    1  UNL1        0.1598
      8 F          64.7163   88.6178   14.4060 F       1  UNL1       -0.2026
      9 O          64.1609   91.8041   11.4086 O.2     1  UNL1       -0.2864
     10 C          63.9631   90.8509   12.5497 C.2     1  UNL1        0.2016
     11 C          64.2584   91.2898   13.9534 C.ar    1  UNL1        0.0620
     12 C          63.3421   91.1485   15.1325 C.ar    1  UNL1        0.1038
     13 N          64.0393   91.7183   16.3322 N.ar    1  UNL1       -0.2268
     14 C          65.3865   92.2118   15.8945 C.ar    1  UNL1        0.1415
     15 N          66.5074   92.8681   16.6447 N.ar    1  UNL1       -0.3374
     16 C          67.7637   93.2595   15.9247 C.ar    1  UNL1        0.0744
     17 C          67.8991   92.9946   14.4545 C.ar    1  UNL1        0.0300
     18 C          66.7782   92.3383   13.7043 C.ar    1  UNL1        0.0622
     19 CL         66.9136   92.0735   12.2341 Cl      1  UNL1       -0.0821
     20 C          65.5219   91.9469   14.4243 C.ar    1  UNL1        0.0491
     21 H          66.4185   93.0420   17.6096 H       1  UNL1        0.1674
     22 N          63.7301   85.8336   13.8811 N.pl3   1  UNL1       -0.2127
     23 H          64.1857   86.0323   14.7309 H       1  UNL1        0.1738
     24 S          63.4126   84.4141   13.5144 S.O2    1  UNL1        0.0759
     25 O          64.8447   84.1940   13.1266 O.2     1  UNL1       -0.1499
     26 O          61.9805   84.6343   13.9023 O.2     1  UNL1       -0.1499
     27 C          63.0950   82.9948   13.1478 C.ar    1  UNL1        0.1547
     28 C          63.2641   82.5301   11.7316 C.ar    1  UNL1        0.0521
     29 C          62.9465   81.1107   11.3649 C.ar    1  UNL1        0.1416
     30 F          63.1157   80.6462    9.9488 F       1  UNL1       -0.2041
     31 C          62.4597   80.1559   12.4144 C.ar    1  UNL1        0.0320
     32 C          62.2906   80.6206   13.8306 C.ar    1  UNL1        0.0333
     33 C          62.6082   82.0400   14.1973 C.ar    1  UNL1        0.1590
     34 F          62.4390   82.5046   15.6135 F       1  UNL1       -0.2027
@<TRIPOS>BOND
     1     9    10    2
     2    10     1    1
     3     1     2   ar
     4     2     3    1
     5     2     4   ar
     6     4     5   ar
     7     5     6   ar
     8     6    22    1
     9    22    24    1
    10    24    25    2
    11    24    26    2
    12    24    27    1
    13    27    28   ar
    14    28    29   ar
    15    29    30    1
    16    29    31   ar
    17    31    32   ar
    18    32    33   ar
    19    33    34    1
    20     6     7   ar
    21     7     8    1
    22    10    11    1
    23    11    12   ar
    24    12    13   ar
    25    13    14   ar
    26    14    15   ar
    27    15    16   ar
    28    16    17   ar
    29    17    18   ar
    30    18    19    1
    31    18    20   ar
    32     7     1   ar
    33    20    11   ar
    34    33    27   ar
    35    20    14    1
    36    22    23    1
    37    15    21    1
@<TRIPOS>MOLECULE
*****
 34 37 0 0 0
SMALL
GASTEIGER

@<TRIPOS>ATOM
      1 C          63.9484   89.2385   15.4570 C.ar    1  UNL1        0.0951
      2 C          63.4930   88.6671   16.7670 C.ar    1  UNL1        0.1454
      3 F          63.2627   89.5725   17.9406 F       1  UNL1       -0.2040
      4 C          63.2679   87.1905   16.9034 C.ar    1  UNL1        0.0312
      5 C          63.4981   86.2851   15.7298 C.ar    1  UNL1        0.0204
      6 C          63.9535   86.8564   14.4198 C.ar    1  UNL1        0.0924
      7 C          64.1786   88.3331   14.2834 C.ar    1  UNL1        0.1598
      8 F          64.6340   88.9045   12.9734 F       1  UNL1       -0.2026
      9 O          63.1649   91.6813   15.8675 O.2     1  UNL1       -0.2864
     10 C          64.1735   90.7153   15.3205 C.2     1  UNL1        0.2016
     11 C          65.4073   91.2258   14.6371 C.ar    1  UNL1        0.0620
     12 C          66.7657   91.3647   15.2580 C.ar    1  UNL1        0.1038
     13 N          67.6972   91.9119   14.2174 N.ar    1  UNL1       -0.2268
     14 C          66.9146   92.1111   12.9533 C.ar    1  UNL1        0.1415
     15 N          67.3078   92.6238   11.5997 N.ar    1  UNL1       -0.3374
     16 C          66.2857   92.7126   10.5054 C.ar    1  UNL1        0.0744
     17 C          64.8705   92.2886   10.7648 C.ar    1  UNL1        0.0300
     18 C          64.4773   91.7758   12.1185 C.ar    1  UNL1        0.0622
     19 CL         63.0620   91.3518   12.3779 Cl      1  UNL1       -0.0821
     20 C          65.4993   91.6871   13.2127 C.ar    1  UNL1        0.0491
     21 H          68.2367   92.9021   11.4294 H       1  UNL1        0.1674
     22 N          64.1838   85.9510   13.2462 N.pl3   1  UNL1       -0.2127
     23 H          64.7044   86.2694   12.4736 H       1  UNL1        0.1738
     24 S          63.6208   84.5607   13.2498 S.O2    1  UNL1        0.0759
     25 O          62.3197   85.0861   12.7197 O.2     1  UNL1       -0.1499
     26 O          64.9219   84.0353   13.7799 O.2     1  UNL1       -0.1499
     27 C          63.0580   83.1703   13.2534 C.ar    1  UNL1        0.1547
     28 C          63.2295   82.2887   12.0520 C.ar    1  UNL1        0.0521
     29 C          62.6667   80.8983   12.0555 C.ar    1  UNL1        0.1416
     30 F          62.8382   80.0167   10.8541 F       1  UNL1       -0.2041
     31 C          61.9323   80.3895   13.2605 C.ar    1  UNL1        0.0320
     32 C          61.7609   81.2712   14.4619 C.ar    1  UNL1        0.0333
     33 C          62.3237   82.6616   14.4583 C.ar    1  UNL1        0.1590
     34 F          62.1521   83.5432   15.6597 F       1  UNL1       -0.2027
@<TRIPOS>BOND
     1     9    10    2
     2    10     1    1
     3     1     2   ar
     4     2     3    1
     5     2     4   ar
     6     4     5   ar
     7     5     6   ar
     8     6    22    1
     9    22    24    1
    10    24    25    2
    11    24    26    2
    12    24    27    1
    13    27    28   ar
    14    28    29   ar
    15    29    30    1
    16    29    31   ar
    17    31    32   ar
    18    32    33   ar
    19    33    34    1
    20     6     7   ar
    21     7     8    1
    22    10    11    1
    23    11    12   ar
    24    12    13   ar
    25    13    14   ar
    26    14    15   ar
    27    15    16   ar
    28    16    17   ar
    29    17    18   ar
    30    18    19    1
    31    18    20   ar
    32     7     1   ar
    33    20    11   ar
    34    33    27   ar
    35    20    14    1
    36    22    23    1
    37    15    21    1
@<TRIPOS>MOLECULE
*****
 34 37 0 0 0
SMALL
GASTEIGER

@<TRIPOS>ATOM
      1 C          61.5188   88.5234   11.0459 C.ar    1  UNL1        0.0951
      2 C          60.6562   88.7704    9.8438 C.ar    1  UNL1        0.1454
      3 F          59.7565   89.9698    9.8001 F       1  UNL1       -0.2040
      4 C          60.6933   87.8180    8.6856 C.ar    1  UNL1        0.0312
      5 C          61.5930   86.6186    8.7294 C.ar    1  UNL1        0.0204
      6 C          62.4557   86.3716    9.9314 C.ar    1  UNL1        0.0924
      7 C          62.4185   87.3240   11.0896 C.ar    1  UNL1        0.1598
      8 F          63.2812   87.0770   12.2917 F       1  UNL1       -0.2026
      9 O          60.1661   89.9800   12.7186 O.2     1  UNL1       -0.2864
     10 C          61.4817   89.4758   12.2042 C.2     1  UNL1        0.2016
     11 C          62.7604   89.9240   12.8479 C.ar    1  UNL1        0.0620
     12 C          63.2395   89.5416   14.2169 C.ar    1  UNL1        0.1038
     13 N          64.5595   90.2145   14.4507 N.ar    1  UNL1       -0.2268
     14 C          64.8963   91.0127   13.2261 C.ar    1  UNL1        0.1415
     15 N          66.0717   91.8798   12.8851 N.ar    1  UNL1       -0.3374
     16 C          66.1352   92.5674   11.5535 C.ar    1  UNL1        0.0744
     17 C          65.0232   92.3878   10.5629 C.ar    1  UNL1        0.0300
     18 C          63.8478   91.5207   10.9039 C.ar    1  UNL1        0.0622
     19 CL         62.7358   91.3411    9.9133 Cl      1  UNL1       -0.0821
     20 C          63.7843   90.8332   12.2355 C.ar    1  UNL1        0.0491
     21 H          66.8016   91.9977   13.5353 H       1  UNL1        0.1674
     22 N          63.3554   85.1721    9.9752 N.pl3   1  UNL1       -0.2127
     23 H          64.0997   85.0915    9.3358 H       1  UNL1        0.1738
     24 S          63.1210   84.0956   10.9930 S.O2    1  UNL1        0.0759
     25 O          61.7081   84.5680   11.1674 O.2     1  UNL1       -0.1499
     26 O          64.5340   83.6232   10.8187 O.2     1  UNL1       -0.1499
     27 C          62.8868   83.0190   12.0109 C.ar    1  UNL1        0.1547
     28 C          62.8397   81.5815   11.5849 C.ar    1  UNL1        0.0521
     29 C          62.6055   80.5048   12.6027 C.ar    1  UNL1        0.1416
     30 F          62.5584   79.0674   12.1766 F       1  UNL1       -0.2041
     31 C          62.4183   80.8656   14.0465 C.ar    1  UNL1        0.0320
     32 C          62.4654   82.3031   14.4726 C.ar    1  UNL1        0.0333
     33 C          62.6997   83.3798   13.4548 C.ar    1  UNL1        0.1590
     34 F          62.7468   84.8172   13.8809 F       1  UNL1       -0.2027
@<TRIPOS>BOND
     1     9    10    2
     2    10     1    1
     3     1     2   ar
     4     2     3    1
     5     2     4   ar
     6     4     5   ar
     7     5     6   ar
     8     6    22    1
     9    22    24    1
    10    24    25    2
    11    24    26    2
    12    24    27    1
    13    27    28   ar
    14    28    29   ar
    15    29    30    1
    16    29    31   ar
    17    31    32   ar
    18    32    33   ar
    19    33    34    1
    20     6     7   ar
    21     7     8    1
    22    10    11    1
    23    11    12   ar
    24    12    13   ar
    25    13    14   ar
    26    14    15   ar
    27    15    16   ar
    28    16    17   ar
    29    17    18   ar
    30    18    19    1
    31    18    20   ar
    32     7     1   ar
    33    20    11   ar
    34    33    27   ar
    35    20    14    1
    36    22    23    1
    37    15    21    1
@<TRIPOS>MOLECULE
*****
 34 37 0 0 0
SMALL
GASTEIGER

@<TRIPOS>ATOM
      1 C          62.6836   86.5236   12.0122 C.ar    1  UNL1        0.0951
      2 C          61.6996   86.1355   10.9487 C.ar    1  UNL1        0.1454
      3 F          61.5479   84.6956   10.5566 F       1  UNL1       -0.2040
      4 C          60.8673   87.1873   10.2773 C.ar    1  UNL1        0.0312
      5 C          61.0189   88.6272   10.6693 C.ar    1  UNL1        0.0204
      6 C          62.0029   89.0153   11.7329 C.ar    1  UNL1        0.0924
      7 C          62.8352   87.9635   12.4043 C.ar    1  UNL1        0.1598
      8 F          63.8193   88.3515   13.4679 F       1  UNL1       -0.2026
      9 O          64.2555   85.7947   13.9481 O.2     1  UNL1       -0.2864
     10 C          63.5160   85.4717   12.6838 C.2     1  UNL1        0.2016
     11 C          63.6088   84.0970   12.0908 C.ar    1  UNL1        0.0620
     12 C          64.2968   83.7348   10.8081 C.ar    1  UNL1        0.1038
     13 N          64.1431   82.2571   10.6010 N.ar    1  UNL1       -0.2268
     14 C          63.3601   81.7061   11.7557 C.ar    1  UNL1        0.1415
     15 N          62.9051   80.3159   12.0877 N.ar    1  UNL1       -0.3374
     16 C          62.1200   80.0629   13.3405 C.ar    1  UNL1        0.0744
     17 C          61.7898   81.2001   14.2612 C.ar    1  UNL1        0.0300
     18 C          62.2447   82.5903   13.9292 C.ar    1  UNL1        0.0622
     19 CL         61.9145   83.7275   14.8500 Cl      1  UNL1       -0.0821
     20 C          63.0299   82.8433   12.6765 C.ar    1  UNL1        0.0491
     21 H          63.1219   79.5696   11.4834 H       1  UNL1        0.1674
     22 N          62.1546   90.4552   12.1249 N.pl3   1  UNL1       -0.2127
     23 H          61.3627   91.0380   12.1741 H       1  UNL1        0.1738
     24 S          63.5128   91.0071   12.4420 S.O2    1  UNL1        0.0759
     25 O          63.9127   90.8484   11.0050 O.2     1  UNL1       -0.1499
     26 O          63.1129   91.1658   13.8789 O.2     1  UNL1       -0.1499
     27 C          64.8710   91.5590   12.7591 C.ar    1  UNL1        0.1547
     28 C          65.6111   91.0790   13.9724 C.ar    1  UNL1        0.0521
     29 C          66.9693   91.6309   14.2897 C.ar    1  UNL1        0.1416
     30 F          67.7092   91.1508   15.5029 F       1  UNL1       -0.2041
     31 C          67.5876   92.6628   13.3936 C.ar    1  UNL1        0.0320
     32 C          66.8475   93.1427   12.1803 C.ar    1  UNL1        0.0333
     33 C          65.4893   92.5909   11.8631 C.ar    1  UNL1        0.1590
     34 F          64.7494   93.0709   10.6498 F       1  UNL1       -0.2027
@<TRIPOS>BOND
     1     9    10    2
     2    10     1    1
     3     1     2   ar
     4     2     3    1
     5     2     4   ar
     6     4     5   ar
     7     5     6   ar
     8     6    22    1
     9    22    24    1
    10    24    25    2
    11    24    26    2
    12    24    27    1
    13    27    28   ar
    14    28    29   ar
    15    29    30    1
    16    29    31   ar
    17    31    32   ar
    18    32    33   ar
    19    33    34    1
    20     6     7   ar
    21     7     8    1
    22    10    11    1
    23    11    12   ar
    24    12    13   ar
    25    13    14   ar
    26    14    15   ar
    27    15    16   ar
    28    16    17   ar
    29    17    18   ar
    30    18    19    1
    31    18    20   ar
    32     7     1   ar
    33    20    11   ar
    34    33    27   ar
    35    20    14    1
    36    22    23    1
    37    15    21    1
@<TRIPOS>MOLECULE
*****
 34 37 0 0 0
SMALL
GASTEIGER

@<TRIPOS>ATOM
      1 C          62.6272   85.8342   10.7323 C.ar    1  UNL1        0.0951
      2 C          61.9848   85.8035    9.3771 C.ar    1  UNL1        0.1454
      3 F          62.0948   84.5756    8.5226 F       1  UNL1       -0.2040
      4 C          61.2325   87.0008    8.8766 C.ar    1  UNL1        0.0312
      5 C          61.1225   88.2287    9.7311 C.ar    1  UNL1        0.0204
      6 C          61.7649   88.2594   11.0862 C.ar    1  UNL1        0.0924
      7 C          62.5172   87.0621   11.5868 C.ar    1  UNL1        0.1598
      8 F          63.1597   87.0927   12.9419 F       1  UNL1       -0.2026
      9 O          64.5474   84.1062   10.4555 O.2     1  UNL1       -0.2864
     10 C          63.3796   84.6370   11.2329 C.2     1  UNL1        0.2016
     11 C          62.9641   83.9706   12.5110 C.ar    1  UNL1        0.0620
     12 C          62.6888   84.6588   13.8150 C.ar    1  UNL1        0.1038
     13 N          62.3056   83.6126   14.8193 N.ar    1  UNL1       -0.2268
     14 C          62.3441   82.2779   14.1359 C.ar    1  UNL1        0.1415
     15 N          62.0611   80.8896   14.6284 N.ar    1  UNL1       -0.3374
     16 C          62.1851   79.7226   13.6943 C.ar    1  UNL1        0.0744
     17 C          62.5922   79.9439   12.2676 C.ar    1  UNL1        0.0300
     18 C          62.8751   81.3322   11.7751 C.ar    1  UNL1        0.0622
     19 CL         63.2822   81.5534   10.3485 Cl      1  UNL1       -0.0821
     20 C          62.7511   82.4991   12.7093 C.ar    1  UNL1        0.0491
     21 H          61.7939   80.7444   15.5648 H       1  UNL1        0.1674
     22 N          61.6549   89.4872   11.9407 N.pl3   1  UNL1       -0.2127
     23 H          60.7686   89.8362   12.1893 H       1  UNL1        0.1738
     24 S          62.8955   90.1834   12.4164 S.O2    1  UNL1        0.0759
     25 O          63.3341   90.3733   10.9946 O.2     1  UNL1       -0.1499
     26 O          62.4568   89.9936   13.8382 O.2     1  UNL1       -0.1499
     27 C          64.1360   90.8796   12.8922 C.ar    1  UNL1        0.1547
     28 C          64.6328   92.1001   12.1756 C.ar    1  UNL1        0.0521
     29 C          65.8733   92.7964   12.6513 C.ar    1  UNL1        0.1416
     30 F          66.3700   94.0169   11.9346 F       1  UNL1       -0.2041
     31 C          66.6171   92.2722   13.8438 C.ar    1  UNL1        0.0320
     32 C          66.1202   91.0517   14.5605 C.ar    1  UNL1        0.0333
     33 C          64.8797   90.3554   14.0847 C.ar    1  UNL1        0.1590
     34 F          64.3830   89.1349   14.8014 F       1  UNL1       -0.2027
@<TRIPOS>BOND
     1     9    10    2
     2    10     1    1
     3     1     2   ar
     4     2     3    1
     5     2     4   ar
     6     4     5   ar
     7     5     6   ar
     8     6    22    1
     9    22    24    1
    10    24    25    2
    11    24    26    2
    12    24    27    1
    13    27    28   ar
    14    28    29   ar
    15    29    30    1
    16    29    31   ar
    17    31    32   ar
    18    32    33   ar
    19    33    34    1
    20     6     7   ar
    21     7     8    1
    22    10    11    1
    23    11    12   ar
    24    12    13   ar
    25    13    14   ar
    26    14    15   ar
    27    15    16   ar
    28    16    17   ar
    29    17    18   ar
    30    18    19    1
    31    18    20   ar
    32     7     1   ar
    33    20    11   ar
    34    33    27   ar
    35    20    14    1
    36    22    23    1
    37    15    21    1
@<TRIPOS>MOLECULE
*****
 34 37 0 0 0
SMALL
GASTEIGER

@<TRIPOS>ATOM
      1 C          62.2851   86.1830   10.8299 C.ar    1  UNL1        0.0951
      2 C          61.4152   86.2174    9.6084 C.ar    1  UNL1        0.1454
      3 F          61.2985   85.0026    8.7362 F       1  UNL1       -0.2040
      4 C          60.6619   87.4665    9.2592 C.ar    1  UNL1        0.0312
      5 C          60.7785   88.6813   10.1314 C.ar    1  UNL1        0.0204
      6 C          61.6485   88.6469   11.3528 C.ar    1  UNL1        0.0924
      7 C          62.4018   87.3977   11.7021 C.ar    1  UNL1        0.1598
      8 F          63.2718   87.3633   12.9235 F       1  UNL1       -0.2026
      9 O          64.0644   84.3869   10.2314 O.2     1  UNL1       -0.2864
     10 C          63.0385   84.9337   11.1792 C.2     1  UNL1        0.2016
     11 C          62.7659   84.2314   12.4763 C.ar    1  UNL1        0.0620
     12 C          62.5142   84.8906   13.7999 C.ar    1  UNL1        0.1038
     13 N          62.2898   83.8132   14.8191 N.ar    1  UNL1       -0.2268
     14 C          62.4029   82.4880   14.1254 C.ar    1  UNL1        0.1415
     15 N          62.2759   81.0795   14.6251 N.ar    1  UNL1       -0.3374
     16 C          62.4432   79.9294   13.6768 C.ar    1  UNL1        0.0744
     17 C          62.7374   80.1878   12.2288 C.ar    1  UNL1        0.0300
     18 C          62.8644   81.5964   11.7291 C.ar    1  UNL1        0.0622
     19 CL         63.1586   81.8549   10.2811 Cl      1  UNL1       -0.0821
     20 C          62.6971   82.7465   12.6774 C.ar    1  UNL1        0.0491
     21 H          62.0828   80.9098   15.5754 H       1  UNL1        0.1674
     22 N          61.7651   89.8617   12.2250 N.pl3   1  UNL1       -0.2127
     23 H          60.9637   90.2361   12.6573 H       1  UNL1        0.1738
     24 S          63.1027   90.5060   12.4386 S.O2    1  UNL1        0.0759
     25 O          62.8889   90.4581   13.9225 O.2     1  UNL1       -0.1499
     26 O          63.3165   90.5539   10.9547 O.2     1  UNL1       -0.1499
     27 C          64.4403   91.1503   12.6520 C.ar    1  UNL1        0.1547
     28 C          65.2351   90.8378   13.8852 C.ar    1  UNL1        0.0521
     29 C          66.5728   91.4821   14.0987 C.ar    1  UNL1        0.1416
     30 F          67.3675   91.1695   15.3319 F       1  UNL1       -0.2041
     31 C          67.1157   92.4389   13.0791 C.ar    1  UNL1        0.0320
     32 C          66.3209   92.7514   11.8459 C.ar    1  UNL1        0.0333
     33 C          64.9832   92.1072   11.6324 C.ar    1  UNL1        0.1590
     34 F          64.1885   92.4197   10.3992 F       1  UNL1       -0.2027
@<TRIPOS>BOND
     1     9    10    2
     2    10     1    1
     3     1     2   ar
     4     2     3    1
     5     2     4   ar
     6     4     5   ar
     7     5     6   ar
     8     6    22    1
     9    22    24    1
    10    24    25    2
    11    24    26    2
    12    24    27    1
    13    27    28   ar
    14    28    29   ar
    15    29    30    1
    16    29    31   ar
    17    31    32   ar
    18    32    33   ar
    19    33    34    1
    20     6     7   ar
    21     7     8    1
    22    10    11    1
    23    11    12   ar
    24    12    13   ar
    25    13    14   ar
    26    14    15   ar
    27    15    16   ar
    28    16    17   ar
    29    17    18   ar
    30    18    19    1
    31    18    20   ar
    32     7     1   ar
    33    20    11   ar
    34    33    27   ar
    35    20    14    1
    36    22    23    1
    37    15    21    1
