@<TRIPOS>MOLECULE
*****
 33 35 0 0 0
SMALL
GASTEIGER

@<TRIPOS>ATOM
      1 C          63.6741   90.3028   15.2291 C.ar    1  UNL1        0.1535
      2 C          64.5083   91.2316   16.0606 C.ar    1  UNL1        0.0574
      3 C          65.6603   91.9644   15.4393 C.ar    1  UNL1        0.0888
      4 N          66.4945   92.8931   16.2708 N.ar    1  UNL1       -0.2238
      5 C          67.6464   93.6259   15.6495 C.ar    1  UNL1        0.2000
      6 N          67.9641   93.4299   14.1966 N.ar    1  UNL1       -0.2089
      7 C          67.1299   92.5012   13.3652 C.ar    1  UNL1        0.1353
      8 C          65.9780   91.7684   13.9865 C.ar    1  UNL1        0.0508
      9 C          65.1437   90.8396   13.1550 C.ar    1  UNL1        0.0221
     10 C          63.9918   90.1068   13.7763 C.ar    1  UNL1        0.0852
     11 N          63.1574   89.1780   12.9448 N.am    1  UNL1       -0.2762
     12 C          62.5092   89.6752   11.6868 C.2     1  UNL1        0.2769
     13 O          62.6952   91.1013   11.2604 O.2     1  UNL1       -0.2674
     14 H          63.0354   88.2421   13.2247 H       1  UNL1        0.1553
     15 C          61.6749   88.7465   10.8553 C.2     1  UNL1        0.1905
     16 F          60.7628   89.2990    9.8005 F       1  UNL1       -0.1997
     17 C          61.7528   87.2653   11.0787 C.2     1  UNL1        0.0256
     18 C          60.9185   86.3366   10.2472 C.3     1  UNL1        0.1014
     19 N          61.3288   86.0162    8.8404 N.3     1  UNL1       -0.2665
     20 C          60.3247   86.0990    7.7290 C.3     1  UNL1        0.0899
     21 C          62.7430   85.6130    8.5449 C.3     1  UNL1        0.0899
     22 C          62.7781   88.4489   16.8135 C.3     1  UNL1        0.2525
     23 O          62.5221   89.5700   15.8504 O.3     1  UNL1       -0.4701
     24 N          67.4476   92.3052   11.9123 N.pl3   1  UNL1       -0.2978
     25 H          67.8211   91.4490   11.6013 H       1  UNL1        0.1536
     26 C          67.1962   93.4136   10.9335 C.ar    1  UNL1        0.0504
     27 C          67.8018   93.3551    9.5624 C.ar    1  UNL1        0.0170
     28 C          67.5505   94.4635    8.5835 C.ar    1  UNL1        0.0318
     29 C          66.6934   95.6304    8.9757 C.ar    1  UNL1        0.1507
     30 F          66.4421   96.7388    7.9967 F       1  UNL1       -0.2033
     31 C          66.0878   95.6889   10.3467 C.ar    1  UNL1        0.0863
     32 CL         65.2308   96.8559   10.7388 Cl      1  UNL1       -0.0799
     33 C          66.3392   94.5805   11.3256 C.ar    1  UNL1        0.0283
@<TRIPOS>BOND
     1    22    23    1
     2    23     1    1
     3     1     2   ar
     4     2     3   ar
     5     3     4   ar
     6     4     5   ar
     7     5     6   ar
     8     6     7   ar
     9     7    24    1
    10    24    26    1
    11    26    27   ar
    12    27    28   ar
    13    28    29   ar
    14    29    30    1
    15    29    31   ar
    16    31    32    1
    17    31    33   ar
    18     7     8   ar
    19     8     9   ar
    20     9    10   ar
    21    10    11    1
    22    11    12   am
    23    12    13    2
    24    12    15    1
    25    15    16    1
    26    15    17    2
    27    17    18    1
    28    18    19    1
    29    19    20    1
    30    19    21    1
    31    10     1   ar
    32     8     3   ar
    33    33    26   ar
    34    24    25    1
    35    11    14    1
@<TRIPOS>MOLECULE
*****
 33 35 0 0 0
SMALL
GASTEIGER

@<TRIPOS>ATOM
      1 C          63.6745   90.3151   15.9342 C.ar    1  UNL1        0.1535
      2 C          63.1375   89.3567   16.9555 C.ar    1  UNL1        0.0574
      3 C          63.1602   87.8815   16.6846 C.ar    1  UNL1        0.0888
      4 N          62.6231   86.9231   17.7059 N.ar    1  UNL1       -0.2238
      5 C          62.6459   85.4480   17.4350 C.ar    1  UNL1        0.2000
      6 N          63.2056   84.9312   16.1429 N.ar    1  UNL1       -0.2089
      7 C          63.7427   85.8896   15.1216 C.ar    1  UNL1        0.1353
      8 C          63.7199   87.3648   15.3925 C.ar    1  UNL1        0.0508
      9 C          64.2570   88.3232   14.3712 C.ar    1  UNL1        0.0221
     10 C          64.2343   89.7984   14.6421 C.ar    1  UNL1        0.0852
     11 N          64.7713   90.7569   13.6208 N.am    1  UNL1       -0.2762
     12 C          63.9612   91.0857   12.4019 C.2     1  UNL1        0.2769
     13 O          62.6141   90.4561   12.2043 O.2     1  UNL1       -0.2674
     14 H          65.6554   91.1701   13.7505 H       1  UNL1        0.1553
     15 C          64.4982   92.0442   11.3806 C.2     1  UNL1        0.1905
     16 F          63.8751   92.1150   10.0181 F       1  UNL1       -0.1997
     17 C          65.6583   92.9317   11.7220 C.2     1  UNL1        0.0256
     18 C          66.1953   93.8901   10.7007 C.3     1  UNL1        0.1014
     19 N          67.4385   93.5499    9.9335 N.3     1  UNL1       -0.2665
     20 C          68.0426   94.5564    8.9996 C.3     1  UNL1        0.0899
     21 C          68.0776   92.2032   10.1001 C.3     1  UNL1        0.0899
     22 C          64.8746   92.4732   16.7421 C.3     1  UNL1        0.2525
     23 O          63.6518   91.7903   16.2051 O.3     1  UNL1       -0.4701
     24 N          64.3024   85.3729   13.8295 N.pl3   1  UNL1       -0.2978
     25 H          64.9528   85.9122   13.3241 H       1  UNL1        0.1536
     26 C          63.8714   84.0344   13.3074 C.ar    1  UNL1        0.0504
     27 C          64.5119   83.4685   12.0747 C.ar    1  UNL1        0.0170
     28 C          64.0809   82.1300   11.5525 C.ar    1  UNL1        0.0318
     29 C          63.0093   81.3574   12.2631 C.ar    1  UNL1        0.1507
     30 F          62.5782   80.0189   11.7409 F       1  UNL1       -0.2033
     31 C          62.3688   81.9233   13.4957 C.ar    1  UNL1        0.0863
     32 CL         61.2972   81.1508   14.2062 Cl      1  UNL1       -0.0799
     33 C          62.7998   83.2619   14.0179 C.ar    1  UNL1        0.0283
@<TRIPOS>BOND
     1    22    23    1
     2    23     1    1
     3     1     2   ar
     4     2     3   ar
     5     3     4   ar
     6     4     5   ar
     7     5     6   ar
     8     6     7   ar
     9     7    24    1
    10    24    26    1
    11    26    27   ar
    12    27    28   ar
    13    28    29   ar
    14    29    30    1
    15    29    31   ar
    16    31    32    1
    17    31    33   ar
    18     7     8   ar
    19     8     9   ar
    20     9    10   ar
    21    10    11    1
    22    11    12   am
    23    12    13    2
    24    12    15    1
    25    15    16    1
    26    15    17    2
    27    17    18    1
    28    18    19    1
    29    19    20    1
    30    19    21    1
    31    10     1   ar
    32     8     3   ar
    33    33    26   ar
    34    24    25    1
    35    11    14    1
@<TRIPOS>MOLECULE
*****
 33 35 0 0 0
SMALL
GASTEIGER

@<TRIPOS>ATOM
      1 C          63.4478   85.2885   15.7956 C.ar    1  UNL1        0.1535
      2 C          62.9683   83.8693   15.7197 C.ar    1  UNL1        0.0574
      3 C          62.9500   83.1532   14.4017 C.ar    1  UNL1        0.0888
      4 N          62.4705   81.7339   14.3258 N.ar    1  UNL1       -0.2238
      5 C          62.4523   81.0179   13.0079 C.ar    1  UNL1        0.2000
      6 N          62.9136   81.7212   11.7659 N.ar    1  UNL1       -0.2089
      7 C          63.3931   83.1404   11.8417 C.ar    1  UNL1        0.1353
      8 C          63.4113   83.8564   13.1597 C.ar    1  UNL1        0.0508
      9 C          63.8908   85.2757   13.2356 C.ar    1  UNL1        0.0221
     10 C          63.9090   85.9917   14.5535 C.ar    1  UNL1        0.0852
     11 N          64.3886   87.4110   14.6294 N.am    1  UNL1       -0.2762
     12 C          63.8994   88.4221   13.6353 C.2     1  UNL1        0.2769
     13 O          62.9306   88.0139   12.5652 O.2     1  UNL1       -0.2674
     14 H          65.0243   87.6789   15.3318 H       1  UNL1        0.1553
     15 C          64.3788   89.8414   13.7112 C.2     1  UNL1        0.1905
     16 F          64.1464   90.7741   12.5596 F       1  UNL1       -0.1997
     17 C          65.0907   90.3280   14.9386 C.2     1  UNL1        0.0256
     18 C          65.5701   91.7472   15.0144 C.3     1  UNL1        0.1014
     19 N          67.0373   92.0486   14.9330 N.3     1  UNL1       -0.2665
     20 C          67.7754   92.5173   16.1518 C.3     1  UNL1        0.0899
     21 C          67.7663   91.8812   13.6328 C.3     1  UNL1        0.0899
     22 C          62.2564   86.7646   17.5709 C.3     1  UNL1        0.2525
     23 O          63.4660   86.0046   17.1135 O.3     1  UNL1       -0.4701
     24 N          63.8544   83.8437   10.5997 N.pl3   1  UNL1       -0.2978
     25 H          64.7869   83.7498   10.2984 H       1  UNL1        0.1536
     26 C          62.8948   84.6899    9.8167 C.ar    1  UNL1        0.0504
     27 C          62.8646   84.6000    8.3197 C.ar    1  UNL1        0.0170
     28 C          61.9051   85.4463    7.5367 C.ar    1  UNL1        0.0318
     29 C          60.9757   86.3825    8.2507 C.ar    1  UNL1        0.1507
     30 F          60.0162   87.2288    7.4677 F       1  UNL1       -0.2033
     31 C          61.0059   86.4724    9.7477 C.ar    1  UNL1        0.0863
     32 CL         60.0766   87.4087   10.4617 Cl      1  UNL1       -0.0799
     33 C          61.9655   85.6261   10.5307 C.ar    1  UNL1        0.0283
@<TRIPOS>BOND
     1    22    23    1
     2    23     1    1
     3     1     2   ar
     4     2     3   ar
     5     3     4   ar
     6     4     5   ar
     7     5     6   ar
     8     6     7   ar
     9     7    24    1
    10    24    26    1
    11    26    27   ar
    12    27    28   ar
    13    28    29   ar
    14    29    30    1
    15    29    31   ar
    16    31    32    1
    17    31    33   ar
    18     7     8   ar
    19     8     9   ar
    20     9    10   ar
    21    10    11    1
    22    11    12   am
    23    12    13    2
    24    12    15    1
    25    15    16    1
    26    15    17    2
    27    17    18    1
    28    18    19    1
    29    19    20    1
    30    19    21    1
    31    10     1   ar
    32     8     3   ar
    33    33    26   ar
    34    24    25    1
    35    11    14    1
@<TRIPOS>MOLECULE
*****
 33 35 0 0 0
SMALL
GASTEIGER

@<TRIPOS>ATOM
      1 C          60.8235   89.4416   10.6849 C.ar    1  UNL1        0.1535
      2 C          60.1748   88.8277    9.4798 C.ar    1  UNL1        0.0574
      3 C          60.6913   87.5319    8.9283 C.ar    1  UNL1        0.0888
      4 N          60.0426   86.9180    7.7232 N.ar    1  UNL1       -0.2238
      5 C          60.5591   85.6223    7.1717 C.ar    1  UNL1        0.2000
      6 N          61.7243   84.9403    7.8254 N.ar    1  UNL1       -0.2089
      7 C          62.3730   85.5542    9.0305 C.ar    1  UNL1        0.1353
      8 C          61.8565   86.8499    9.5820 C.ar    1  UNL1        0.0508
      9 C          62.5052   87.4638   10.7871 C.ar    1  UNL1        0.0221
     10 C          61.9887   88.7596   11.3386 C.ar    1  UNL1        0.0852
     11 N          62.6374   89.3735   12.5438 N.am    1  UNL1       -0.2762
     12 C          63.5282   90.5703   12.3881 C.2     1  UNL1        0.2769
     13 O          63.7704   91.1531   11.0273 O.2     1  UNL1       -0.2674
     14 H          62.4785   88.9910   13.4369 H       1  UNL1        0.1553
     15 C          64.1769   91.1842   13.5932 C.2     1  UNL1        0.1905
     16 F          63.5417   91.0363   14.9439 F       1  UNL1       -0.1997
     17 C          65.4609   91.9459   13.4475 C.2     1  UNL1        0.0256
     18 C          66.1095   92.5598   14.6526 C.3     1  UNL1        0.1014
     19 N          67.6037   92.6709   14.7253 N.3     1  UNL1       -0.2665
     20 C          68.2416   93.5316   15.7753 C.3     1  UNL1        0.0899
     21 C          68.4599   91.9215   13.7480 C.3     1  UNL1        0.0899
     22 C          58.8854   90.8400   11.7039 C.3     1  UNL1        0.2525
     23 O          60.3070   90.7374   11.2364 O.3     1  UNL1       -0.4701
     24 N          63.5382   84.8722    9.6842 N.pl3   1  UNL1       -0.2978
     25 H          64.4574   85.1186    9.4322 H       1  UNL1        0.1536
     26 C          63.3028   83.8149   10.7218 C.ar    1  UNL1        0.0504
     27 C          63.4701   82.3667   10.3684 C.ar    1  UNL1        0.0170
     28 C          63.2347   81.3094   11.4060 C.ar    1  UNL1        0.0318
     29 C          62.8320   81.7003   12.7971 C.ar    1  UNL1        0.1507
     30 F          62.5966   80.6429   13.8347 F       1  UNL1       -0.2033
     31 C          62.6647   83.1483   13.1505 C.ar    1  UNL1        0.0863
     32 CL         62.2620   83.5391   14.5416 Cl      1  UNL1       -0.0799
     33 C          62.9001   84.2057   12.1129 C.ar    1  UNL1        0.0283
@<TRIPOS>BOND
     1    22    23    1
     2    23     1    1
     3     1     2   ar
     4     2     3   ar
     5     3     4   ar
     6     4     5   ar
     7     5     6   ar
     8     6     7   ar
     9     7    24    1
    10    24    26    1
    11    26    27   ar
    12    27    28   ar
    13    28    29   ar
    14    29    30    1
    15    29    31   ar
    16    31    32    1
    17    31    33   ar
    18     7     8   ar
    19     8     9   ar
    20     9    10   ar
    21    10    11    1
    22    11    12   am
    23    12    13    2
    24    12    15    1
    25    15    16    1
    26    15    17    2
    27    17    18    1
    28    18    19    1
    29    19    20    1
    30    19    21    1
    31    10     1   ar
    32     8     3   ar
    33    33    26   ar
    34    24    25    1
    35    11    14    1
@<TRIPOS>MOLECULE
*****
 33 35 0 0 0
SMALL
GASTEIGER

@<TRIPOS>ATOM
      1 C          63.6271   89.7710   15.1685 C.ar    1  UNL1        0.1535
      2 C          64.2895   90.9201   15.8692 C.ar    1  UNL1        0.0574
      3 C          65.2213   91.8219   15.1152 C.ar    1  UNL1        0.0888
      4 N          65.8836   92.9709   15.8159 N.ar    1  UNL1       -0.2238
      5 C          66.8154   93.8727   15.0619 C.ar    1  UNL1        0.2000
      6 N          67.0848   93.6254   13.6071 N.ar    1  UNL1       -0.2089
      7 C          66.4225   92.4764   12.9064 C.ar    1  UNL1        0.1353
      8 C          65.4907   91.5746   13.6604 C.ar    1  UNL1        0.0508
      9 C          64.8284   90.4256   12.9597 C.ar    1  UNL1        0.0221
     10 C          63.8966   89.5238   13.7137 C.ar    1  UNL1        0.0852
     11 N          63.2342   88.3747   13.0130 N.am    1  UNL1       -0.2762
     12 C          63.6394   86.9665   13.3337 C.2     1  UNL1        0.2769
     13 O          64.7070   86.7074   14.3552 O.2     1  UNL1       -0.2674
     14 H          62.5336   88.5448   12.3426 H       1  UNL1        0.1553
     15 C          62.9771   85.8175   12.6331 C.2     1  UNL1        0.1905
     16 F          62.0291   86.0760   11.4998 F       1  UNL1       -0.1997
     17 C          63.2628   84.4099   13.0657 C.2     1  UNL1        0.0256
     18 C          62.6005   83.2609   12.3651 C.3     1  UNL1        0.1014
     19 N          63.3536   82.4787   11.3302 N.3     1  UNL1       -0.2665
     20 C          64.4671   83.1279   10.5628 C.3     1  UNL1        0.0899
     21 C          62.9934   81.0474   11.0628 C.3     1  UNL1        0.0899
     22 C          63.1176   88.2855   17.2382 C.3     1  UNL1        0.2525
     23 O          62.6953   88.8692   15.9225 O.3     1  UNL1       -0.4701
     24 N          66.6919   92.2292   11.4517 N.pl3   1  UNL1       -0.2978
     25 H          66.8107   91.3089   11.1225 H       1  UNL1        0.1536
     26 C          66.7805   93.3839   10.4985 C.ar    1  UNL1        0.0504
     27 C          67.8228   93.3878    9.4197 C.ar    1  UNL1        0.0170
     28 C          67.9114   94.5426    8.4665 C.ar    1  UNL1        0.0318
     29 C          66.9576   95.6935    8.5920 C.ar    1  UNL1        0.1507
     30 F          67.0462   96.8483    7.6387 F       1  UNL1       -0.2033
     31 C          65.9153   95.6896    9.6706 C.ar    1  UNL1        0.0863
     32 CL         64.9616   96.8406    9.7961 Cl      1  UNL1       -0.0799
     33 C          65.8267   94.5348   10.6239 C.ar    1  UNL1        0.0283
@<TRIPOS>BOND
     1    22    23    1
     2    23     1    1
     3     1     2   ar
     4     2     3   ar
     5     3     4   ar
     6     4     5   ar
     7     5     6   ar
     8     6     7   ar
     9     7    24    1
    10    24    26    1
    11    26    27   ar
    12    27    28   ar
    13    28    29   ar
    14    29    30    1
    15    29    31   ar
    16    31    32    1
    17    31    33   ar
    18     7     8   ar
    19     8     9   ar
    20     9    10   ar
    21    10    11    1
    22    11    12   am
    23    12    13    2
    24    12    15    1
    25    15    16    1
    26    15    17    2
    27    17    18    1
    28    18    19    1
    29    19    20    1
    30    19    21    1
    31    10     1   ar
    32     8     3   ar
    33    33    26   ar
    34    24    25    1
    35    11    14    1
@<TRIPOS>MOLECULE
*****
 33 35 0 0 0
SMALL
GASTEIGER

@<TRIPOS>ATOM
      1 C          65.6218   92.5909   11.2959 C.ar    1  UNL1        0.1535
      2 C          66.6084   93.1135   12.2976 C.ar    1  UNL1        0.0574
      3 C          66.3988   92.8577   13.7607 C.ar    1  UNL1        0.0888
      4 N          67.3854   93.3803   14.7624 N.ar    1  UNL1       -0.2238
      5 C          67.1757   93.1245   16.2254 C.ar    1  UNL1        0.2000
      6 N          65.9793   92.3461   16.6868 N.ar    1  UNL1       -0.2089
      7 C          64.9927   91.8235   15.6851 C.ar    1  UNL1        0.1353
      8 C          65.2024   92.0793   14.2221 C.ar    1  UNL1        0.0508
      9 C          64.2157   91.5567   13.2203 C.ar    1  UNL1        0.0221
     10 C          64.4254   91.8125   11.7573 C.ar    1  UNL1        0.0852
     11 N          63.4388   91.2899   10.7555 N.am    1  UNL1       -0.2762
     12 C          62.3467   90.3595   11.1934 C.2     1  UNL1        0.2769
     13 O          62.2413   89.9518   12.6332 O.2     1  UNL1       -0.2674
     14 H          63.5080   91.5575    9.8106 H       1  UNL1        0.1553
     15 C          61.3600   89.8370   10.1918 C.2     1  UNL1        0.1905
     16 F          60.1680   90.6642    9.8113 F       1  UNL1       -0.1997
     17 C          61.5654   88.4872    9.5706 C.2     1  UNL1        0.0256
     18 C          60.5788   87.9646    8.5689 C.3     1  UNL1        0.1014
     19 N          60.6653   86.5414    8.1030 N.3     1  UNL1       -0.2665
     20 C          61.9236   85.7551    8.3238 C.3     1  UNL1        0.0899
     21 C          59.4937   85.9044    7.4165 C.3     1  UNL1        0.0899
     22 C          66.8837   93.8170    9.3843 C.3     1  UNL1        0.2525
     23 O          65.8315   92.8466    9.8327 O.3     1  UNL1       -0.4701
     24 N          63.7963   91.0452   16.1465 N.pl3   1  UNL1       -0.2978
     25 H          63.0172   91.5161   16.5211 H       1  UNL1        0.1536
     26 C          63.7870   89.5492   16.0370 C.ar    1  UNL1        0.0504
     27 C          64.4287   88.8794   14.8581 C.ar    1  UNL1        0.0170
     28 C          64.4194   87.3835   14.7486 C.ar    1  UNL1        0.0318
     29 C          63.7685   86.5573   15.8180 C.ar    1  UNL1        0.1507
     30 F          63.7592   85.0612   15.7085 F       1  UNL1       -0.2033
     31 C          63.1269   87.2269   16.9969 C.ar    1  UNL1        0.0863
     32 CL         62.4760   86.4007   18.0663 Cl      1  UNL1       -0.0799
     33 C          63.1361   88.7230   17.1064 C.ar    1  UNL1        0.0283
@<TRIPOS>BOND
     1    22    23    1
     2    23     1    1
     3     1     2   ar
     4     2     3   ar
     5     3     4   ar
     6     4     5   ar
     7     5     6   ar
     8     6     7   ar
     9     7    24    1
    10    24    26    1
    11    26    27   ar
    12    27    28   ar
    13    28    29   ar
    14    29    30    1
    15    29    31   ar
    16    31    32    1
    17    31    33   ar
    18     7     8   ar
    19     8     9   ar
    20     9    10   ar
    21    10    11    1
    22    11    12   am
    23    12    13    2
    24    12    15    1
    25    15    16    1
    26    15    17    2
    27    17    18    1
    28    18    19    1
    29    19    20    1
    30    19    21    1
    31    10     1   ar
    32     8     3   ar
    33    33    26   ar
    34    24    25    1
    35    11    14    1
@<TRIPOS>MOLECULE
*****
 33 35 0 0 0
SMALL
GASTEIGER

@<TRIPOS>ATOM
      1 C          64.2729   89.5249   14.4652 C.ar    1  UNL1        0.1535
      2 C          65.5719   89.8725   15.1297 C.ar    1  UNL1        0.0574
      3 C          66.2622   91.1625   14.7985 C.ar    1  UNL1        0.0888
      4 N          67.5612   91.5102   15.4630 N.ar    1  UNL1       -0.2238
      5 C          68.2513   92.8001   15.1318 C.ar    1  UNL1        0.2000
      6 N          67.6425   93.7424   14.1361 N.ar    1  UNL1       -0.2089
      7 C          66.3434   93.3947   13.4716 C.ar    1  UNL1        0.1353
      8 C          65.6533   92.1048   13.8028 C.ar    1  UNL1        0.0508
      9 C          64.3542   91.7571   13.1383 C.ar    1  UNL1        0.0221
     10 C          63.6640   90.4672   13.4695 C.ar    1  UNL1        0.0852
     11 N          62.3649   90.1194   12.8050 N.am    1  UNL1       -0.2762
     12 C          62.2666   90.1118   11.3082 C.2     1  UNL1        0.2769
     13 O          63.4674   90.4520   10.4760 O.2     1  UNL1       -0.2674
     14 H          61.5769   89.8962   13.3512 H       1  UNL1        0.1553
     15 C          60.9676   89.7642   10.6437 C.2     1  UNL1        0.1905
     16 F          59.9072   90.8116   10.4757 F       1  UNL1       -0.1997
     17 C          60.7290   88.3690   10.1471 C.2     1  UNL1        0.0256
     18 C          59.4300   88.0213    9.4826 C.3     1  UNL1        0.1014
     19 N          59.3865   87.7750    8.0036 N.3     1  UNL1       -0.2665
     20 C          59.3493   88.9332    7.0511 C.3     1  UNL1        0.0899
     21 C          59.3801   86.3705    7.4771 C.3     1  UNL1        0.0899
     22 C          64.2903   86.9295   14.5836 C.3     1  UNL1        0.2525
     23 O          63.5827   88.2349   14.7963 O.3     1  UNL1       -0.4701
     24 N          65.7346   94.3370   12.4759 N.pl3   1  UNL1       -0.2978
     25 H          64.9718   94.9025   12.7360 H       1  UNL1        0.1536
     26 C          66.2878   94.4177   11.0841 C.ar    1  UNL1        0.0504
     27 C          65.9554   95.5918   10.2117 C.ar    1  UNL1        0.0170
     28 C          66.5087   95.6724    8.8198 C.ar    1  UNL1        0.0318
     29 C          67.3944   94.5790    8.3003 C.ar    1  UNL1        0.1507
     30 F          67.9477   94.6598    6.9083 F       1  UNL1       -0.2033
     31 C          67.7269   93.4050    9.1726 C.ar    1  UNL1        0.0863
     32 CL         68.6126   92.3116    8.6530 Cl      1  UNL1       -0.0799
     33 C          67.1736   93.3243   10.5645 C.ar    1  UNL1        0.0283
@<TRIPOS>BOND
     1    22    23    1
     2    23     1    1
     3     1     2   ar
     4     2     3   ar
     5     3     4   ar
     6     4     5   ar
     7     5     6   ar
     8     6     7   ar
     9     7    24    1
    10    24    26    1
    11    26    27   ar
    12    27    28   ar
    13    28    29   ar
    14    29    30    1
    15    29    31   ar
    16    31    32    1
    17    31    33   ar
    18     7     8   ar
    19     8     9   ar
    20     9    10   ar
    21    10    11    1
    22    11    12   am
    23    12    13    2
    24    12    15    1
    25    15    16    1
    26    15    17    2
    27    17    18    1
    28    18    19    1
    29    19    20    1
    30    19    21    1
    31    10     1   ar
    32     8     3   ar
    33    33    26   ar
    34    24    25    1
    35    11    14    1
@<TRIPOS>MOLECULE
*****
 33 35 0 0 0
SMALL
GASTEIGER

@<TRIPOS>ATOM
      1 C          61.8010   87.3361   10.3172 C.ar    1  UNL1        0.1535
      2 C          61.9818   88.6999    9.7196 C.ar    1  UNL1        0.0574
      3 C          62.7415   89.7531   10.4705 C.ar    1  UNL1        0.0888
      4 N          62.9224   91.1169    9.8728 N.ar    1  UNL1       -0.2238
      5 C          63.6820   92.1700   10.6237 C.ar    1  UNL1        0.2000
      6 N          64.2608   91.8593   11.9722 N.ar    1  UNL1       -0.2089
      7 C          64.0799   90.4955   12.5699 C.ar    1  UNL1        0.1353
      8 C          63.3202   89.4424   11.8190 C.ar    1  UNL1        0.0508
      9 C          63.1393   88.0785   12.4166 C.ar    1  UNL1        0.0221
     10 C          62.3797   87.0253   11.6658 C.ar    1  UNL1        0.0852
     11 N          62.1988   85.6614   12.2634 N.am    1  UNL1       -0.2762
     12 C          63.0301   85.2415   13.4392 C.2     1  UNL1        0.2769
     13 O          64.0425   86.1855   14.0173 O.2     1  UNL1       -0.2674
     14 H          61.5344   85.0419   11.8839 H       1  UNL1        0.1553
     15 C          62.8493   83.8777   14.0368 C.2     1  UNL1        0.1905
     16 F          61.9512   83.6922   15.2239 F       1  UNL1       -0.1997
     17 C          63.5664   82.6994   13.4474 C.2     1  UNL1        0.0256
     18 C          63.3855   81.3356   14.0451 C.3     1  UNL1        0.1014
     19 N          62.2434   80.4689   13.6040 N.3     1  UNL1       -0.2665
     20 C          60.8633   80.7189   14.1358 C.3     1  UNL1        0.0899
     21 C          62.4814   79.3523   12.6312 C.3     1  UNL1        0.0899
     22 C          60.0713   86.6795    8.4931 C.3     1  UNL1        0.2525
     23 O          61.0413   86.2828    9.5663 O.3     1  UNL1       -0.4701
     24 N          64.6586   90.1848   13.9184 N.pl3   1  UNL1       -0.2978
     25 H          64.3936   89.3623   14.3902 H       1  UNL1        0.1536
     26 C          65.6411   91.1271   14.5481 C.ar    1  UNL1        0.0504
     27 C          65.2348   91.9533   15.7324 C.ar    1  UNL1        0.0170
     28 C          66.2173   92.8956   16.3621 C.ar    1  UNL1        0.0318
     29 C          67.6062   93.0119   15.8076 C.ar    1  UNL1        0.1507
     30 F          68.5887   93.9543   16.4374 F       1  UNL1       -0.2033
     31 C          68.0125   92.1858   14.6234 C.ar    1  UNL1        0.0863
     32 CL         69.4014   92.3021   14.0689 Cl      1  UNL1       -0.0799
     33 C          67.0300   91.2434   13.9936 C.ar    1  UNL1        0.0283
@<TRIPOS>BOND
     1    22    23    1
     2    23     1    1
     3     1     2   ar
     4     2     3   ar
     5     3     4   ar
     6     4     5   ar
     7     5     6   ar
     8     6     7   ar
     9     7    24    1
    10    24    26    1
    11    26    27   ar
    12    27    28   ar
    13    28    29   ar
    14    29    30    1
    15    29    31   ar
    16    31    32    1
    17    31    33   ar
    18     7     8   ar
    19     8     9   ar
    20     9    10   ar
    21    10    11    1
    22    11    12   am
    23    12    13    2
    24    12    15    1
    25    15    16    1
    26    15    17    2
    27    17    18    1
    28    18    19    1
    29    19    20    1
    30    19    21    1
    31    10     1   ar
    32     8     3   ar
    33    33    26   ar
    34    24    25    1
    35    11    14    1
@<TRIPOS>MOLECULE
*****
 33 35 0 0 0
SMALL
GASTEIGER

@<TRIPOS>ATOM
      1 C          62.6483   89.5427   11.7012 C.ar    1  UNL1        0.1535
      2 C          63.4288   89.1668   12.9257 C.ar    1  UNL1        0.0574
      3 C          63.6385   87.7213   13.2671 C.ar    1  UNL1        0.0888
      4 N          64.4189   87.3454   14.4917 N.ar    1  UNL1       -0.2238
      5 C          64.6286   85.8999   14.8329 C.ar    1  UNL1        0.2000
      6 N          64.0578   84.8303   13.9496 N.ar    1  UNL1       -0.2089
      7 C          63.2774   85.2062   12.7251 C.ar    1  UNL1        0.1353
      8 C          63.0677   86.6517   12.3838 C.ar    1  UNL1        0.0508
      9 C          62.2873   87.0276   11.1592 C.ar    1  UNL1        0.0221
     10 C          62.0776   88.4731   10.8179 C.ar    1  UNL1        0.0852
     11 N          61.2972   88.8491    9.5932 N.am    1  UNL1       -0.2762
     12 C          60.4261   87.8319    8.9175 C.2     1  UNL1        0.2769
     13 O          60.3355   86.4388    9.4663 O.2     1  UNL1       -0.2674
     14 H          61.3567   89.7634    9.2330 H       1  UNL1        0.1553
     15 C          59.6457   88.2078    7.6929 C.2     1  UNL1        0.1905
     16 F          58.7854   87.1869    7.0092 F       1  UNL1       -0.1997
     17 C          59.7256   89.6046    7.1521 C.2     1  UNL1        0.0256
     18 C          58.9452   89.9805    5.9275 C.3     1  UNL1        0.1014
     19 N          59.4160   91.1054    5.0540 N.3     1  UNL1       -0.2665
     20 C          58.4275   92.0859    4.4959 C.3     1  UNL1        0.0899
     21 C          60.8753   91.2497    4.7386 C.3     1  UNL1        0.0899
     22 C          63.3763   91.6794   10.4147 C.3     1  UNL1        0.2525
     23 O          62.4386   90.9883   11.3598 O.3     1  UNL1       -0.4701
     24 N          62.7067   84.1365   11.8418 N.pl3   1  UNL1       -0.2978
     25 H          62.4190   84.3559   10.9261 H       1  UNL1        0.1536
     26 C          62.5742   82.7328   12.3536 C.ar    1  UNL1        0.0504
     27 C          62.2226   82.4887   13.7912 C.ar    1  UNL1        0.0170
     28 C          62.0901   81.0850   14.3030 C.ar    1  UNL1        0.0318
     29 C          62.3093   79.9253   13.3772 C.ar    1  UNL1        0.1507
     30 F          62.1768   78.5215   13.8890 F       1  UNL1       -0.2033
     31 C          62.6609   80.1694   11.9396 C.ar    1  UNL1        0.0863
     32 CL         62.8800   79.0097   11.0137 Cl      1  UNL1       -0.0799
     33 C          62.7934   81.5732   11.4277 C.ar    1  UNL1        0.0283
@<TRIPOS>BOND
     1    22    23    1
     2    23     1    1
     3     1     2   ar
     4     2     3   ar
     5     3     4   ar
     6     4     5   ar
     7     5     6   ar
     8     6     7   ar
     9     7    24    1
    10    24    26    1
    11    26    27   ar
    12    27    28   ar
    13    28    29   ar
    14    29    30    1
    15    29    31   ar
    16    31    32    1
    17    31    33   ar
    18     7     8   ar
    19     8     9   ar
    20     9    10   ar
    21    10    11    1
    22    11    12   am
    23    12    13    2
    24    12    15    1
    25    15    16    1
    26    15    17    2
    27    17    18    1
    28    18    19    1
    29    19    20    1
    30    19    21    1
    31    10     1   ar
    32     8     3   ar
    33    33    26   ar
    34    24    25    1
    35    11    14    1
