@<TRIPOS>MOLECULE
*****
 34 38 0 0 0
SMALL
GASTEIGER

@<TRIPOS>ATOM
      1 C          60.5248   86.7346    8.2145 C.3     1  UNL1        0.0795
      2 C          59.7932   87.5739    7.2093 C.3     1  UNL1        0.0178
      3 C          59.4951   89.0131    7.5088 C.3     1  UNL1        0.0029
      4 C          59.9285   89.6131    8.8135 C.3     1  UNL1        0.0178
      5 C          60.6601   88.7738    9.8187 C.3     1  UNL1        0.0799
      6 N          60.9583   87.3346    9.5191 N.3     1  UNL1       -0.1583
      7 C          61.0935   89.3738   11.1233 C.3     1  UNL1        0.0237
      8 C          59.7607   89.5310   11.7932 C.3     1  UNL1        0.0019
      9 C          61.0117   89.9561   12.5033 C.3     1  UNL1        0.0019
     10 C          62.5769   89.4250   10.9066 C.3     1  UNL1        0.0866
     11 C          63.2660   90.7475   10.7444 C.2     1  UNL1        0.2257
     12 O          63.0492   91.5587    9.5014 O.2     1  UNL1       -0.2749
     13 N          64.1719   91.2586   11.8251 N.am    1  UNL1       -0.2794
     14 C          64.8610   92.5811   11.6630 C.3     1  UNL1        0.0947
     15 C          65.7669   93.0923   12.7437 C.3     1  UNL1        0.0360
     16 C          65.9837   92.2811   13.9867 C.3     1  UNL1        0.0465
     17 C          66.8171   93.5135   14.1772 C.3     1  UNL1        0.0316
     18 C          67.2648   93.0040   15.5151 C.3     1  UNL1        0.0698
     19 N          66.4314   91.7714   15.3245 N.3     1  UNL1       -0.2994
     20 C          65.2946   90.9586   14.1488 C.3     1  UNL1        0.0360
     21 C          64.3887   90.4474   13.0681 C.3     1  UNL1        0.0947
     22 H          65.6780   91.6689   16.0044 H       1  UNL1        0.1232
     23 S          61.6899   86.4953   10.5244 S.O2    1  UNL1        0.0632
     24 O          60.8249   86.3927   11.5557 O.2     1  UNL1       -0.1528
     25 O          62.8629   86.4036    9.5939 O.2     1  UNL1       -0.1528
     26 C          62.4215   85.6561   11.5295 C.ar    1  UNL1        0.1222
     27 C          62.5100   84.1702   11.3438 C.ar    1  UNL1        0.0208
     28 C          63.2417   83.3311   12.3490 C.ar    1  UNL1        0.0128
     29 C          63.8848   83.9776   13.5399 C.ar    1  UNL1        0.0578
     30 CL         64.6165   83.1384   14.5451 Cl      1  UNL1       -0.0822
     31 C          63.7963   85.4634   13.7256 C.ar    1  UNL1        0.0128
     32 C          63.0647   86.3026   12.7204 C.ar    1  UNL1        0.0208
     33 C          61.5530   84.9266    6.6575 C.3     1  UNL1        0.0015
     34 C          60.8230   85.2954    7.9150 C.3     1  UNL1        0.0177
@<TRIPOS>BOND
     1    33    34    1
     2     1    34    1
     3     1     2    1
     4     2     3    1
     5     3     4    1
     6     4     5    1
     7     5     7    1
     8     7    10    1
     9    10    11    1
    10    11    12    2
    11    11    13   am
    12    13    14    1
    13    14    15    1
    14    15    16    1
    15    16    17    1
    16    17    18    1
    17    18    19    1
    18    16    20    1
    19    20    21    1
    20     7     8    1
    21     8     9    1
    22     5     6    1
    23     6    23    1
    24    23    24    2
    25    23    25    2
    26    23    26    1
    27    26    27   ar
    28    27    28   ar
    29    28    29   ar
    30    29    30    1
    31    29    31   ar
    32    31    32   ar
    33     6     1    1
    34    32    26   ar
    35     9     7    1
    36    21    13    1
    37    19    16    1
    38    19    22    1
@<TRIPOS>MOLECULE
*****
 34 38 0 0 0
SMALL
GASTEIGER

@<TRIPOS>ATOM
      1 C          60.4985   86.4986    7.8565 C.3     1  UNL1        0.0795
      2 C          59.7316   87.3609    6.8981 C.3     1  UNL1        0.0178
      3 C          59.3647   88.7641    7.2804 C.3     1  UNL1        0.0029
      4 C          59.7645   89.3052    8.6211 C.3     1  UNL1        0.0178
      5 C          60.5314   88.4429    9.5794 C.3     1  UNL1        0.0799
      6 N          60.8984   87.0397    9.1971 N.3     1  UNL1       -0.1583
      7 C          60.9312   88.9840   10.9201 C.3     1  UNL1        0.0237
      8 C          59.5799   89.1352   11.5534 C.3     1  UNL1        0.0019
      9 C          60.8135   89.5124   12.3190 C.3     1  UNL1        0.0019
     10 C          62.4214   89.0208   10.7524 C.3     1  UNL1        0.0866
     11 C          63.2889   89.5319   11.8642 C.2     1  UNL1        0.2257
     12 O          63.4355   88.7363   13.1274 O.2     1  UNL1       -0.2749
     13 N          64.0098   90.8385   11.7129 N.am    1  UNL1       -0.2794
     14 C          64.8773   91.3496   12.8248 C.3     1  UNL1        0.0947
     15 C          65.5983   92.6563   12.6735 C.3     1  UNL1        0.0360
     16 C          65.4516   93.4519   11.4104 C.3     1  UNL1        0.0465
     17 C          66.3754   94.2596   12.2729 C.3     1  UNL1        0.0316
     18 C          66.4711   95.2998   11.1964 C.3     1  UNL1        0.0698
     19 N          65.5473   94.4920   10.3338 N.3     1  UNL1       -0.2994
     20 C          64.5841   92.9408   10.2986 C.3     1  UNL1        0.0360
     21 C          63.8632   91.6342   10.4498 C.3     1  UNL1        0.0947
     22 H          65.9714   94.1577    9.4684 H       1  UNL1        0.1232
     23 S          61.6653   86.1775   10.1556 S.O2    1  UNL1        0.0632
     24 O          60.8248   86.0235   11.2007 O.2     1  UNL1       -0.1528
     25 O          62.8190   86.1389    9.1976 O.2     1  UNL1       -0.1528
     26 C          62.4322   85.3153   11.1139 C.ar    1  UNL1        0.1222
     27 C          63.2533   84.1699   10.6003 C.ar    1  UNL1        0.0208
     28 C          64.0202   83.3078   11.5587 C.ar    1  UNL1        0.0128
     29 C          63.9660   83.5910   13.0307 C.ar    1  UNL1        0.0578
     30 CL         64.7329   82.7288   13.9891 Cl      1  UNL1       -0.0822
     31 C          63.1448   84.7363   13.5443 C.ar    1  UNL1        0.0128
     32 C          62.3779   85.5985   12.5859 C.ar    1  UNL1        0.0208
     33 C          61.6650   84.8415    6.2306 C.3     1  UNL1        0.0015
     34 C          60.8655   85.0954    7.4742 C.3     1  UNL1        0.0177
@<TRIPOS>BOND
     1    33    34    1
     2     1    34    1
     3     1     2    1
     4     2     3    1
     5     3     4    1
     6     4     5    1
     7     5     7    1
     8     7    10    1
     9    10    11    1
    10    11    12    2
    11    11    13   am
    12    13    14    1
    13    14    15    1
    14    15    16    1
    15    16    17    1
    16    17    18    1
    17    18    19    1
    18    16    20    1
    19    20    21    1
    20     7     8    1
    21     8     9    1
    22     5     6    1
    23     6    23    1
    24    23    24    2
    25    23    25    2
    26    23    26    1
    27    26    27   ar
    28    27    28   ar
    29    28    29   ar
    30    29    30    1
    31    29    31   ar
    32    31    32   ar
    33     6     1    1
    34    32    26   ar
    35     9     7    1
    36    21    13    1
    37    19    16    1
    38    19    22    1
@<TRIPOS>MOLECULE
*****
 34 38 0 0 0
SMALL
GASTEIGER

@<TRIPOS>ATOM
      1 C          65.4044   91.6583   12.8059 C.3     1  UNL1        0.0795
      2 C          65.6883   92.5299   11.6185 C.3     1  UNL1        0.0178
      3 C          64.7849   92.4847   10.4219 C.3     1  UNL1        0.0029
      4 C          63.5977   91.5681   10.4125 C.3     1  UNL1        0.0178
      5 C          63.3138   90.6965   11.5999 C.3     1  UNL1        0.0799
      6 N          64.2171   90.7417   12.7965 N.3     1  UNL1       -0.1583
      7 C          62.1265   89.7799   11.5906 C.3     1  UNL1        0.0237
      8 C          61.0280   90.7787   11.3769 C.3     1  UNL1        0.0019
      9 C          60.7008   89.3207   11.5081 C.3     1  UNL1        0.0019
     10 C          62.8125   88.4627   11.8009 C.3     1  UNL1        0.0866
     11 C          62.5440   87.3196   10.8675 C.2     1  UNL1        0.2257
     12 O          62.1033   87.5889    9.4592 O.2     1  UNL1       -0.2749
     13 N          62.7160   85.9072   11.3424 N.am    1  UNL1       -0.2794
     14 C          62.4474   84.7641   10.4091 C.3     1  UNL1        0.0947
     15 C          62.6194   83.3517   10.8839 C.3     1  UNL1        0.0360
     16 C          63.0601   83.0824   12.2922 C.3     1  UNL1        0.0465
     17 C          62.8922   81.7270   11.6721 C.3     1  UNL1        0.0316
     18 C          63.3034   81.0850   12.9639 C.3     1  UNL1        0.0698
     19 N          63.4712   82.4405   13.5841 N.3     1  UNL1       -0.2994
     20 C          63.3286   84.2255   13.2256 C.3     1  UNL1        0.0360
     21 C          63.1566   85.6379   12.7508 C.3     1  UNL1        0.0947
     22 H          64.4275   82.6527   13.8687 H       1  UNL1        0.1232
     23 S          63.9331   89.8700   13.9839 S.O2    1  UNL1        0.0632
     24 O          64.5695   88.7138   13.7000 O.2     1  UNL1       -0.1528
     25 O          63.1335   90.9768   14.6050 O.2     1  UNL1       -0.1528
     26 C          63.6491   88.9985   15.1712 C.ar    1  UNL1        0.1222
     27 C          63.9491   87.5300   15.1125 C.ar    1  UNL1        0.0208
     28 C          63.6651   86.6585   16.2999 C.ar    1  UNL1        0.0128
     29 C          63.0810   87.2555   17.5459 C.ar    1  UNL1        0.0578
     30 CL         62.7970   86.3840   18.7332 Cl      1  UNL1       -0.0822
     31 C          62.7811   88.7240   17.6045 C.ar    1  UNL1        0.0128
     32 C          63.0651   89.5955   16.4172 C.ar    1  UNL1        0.0208
     33 C          67.7669   92.0050   13.8298 C.3     1  UNL1        0.0015
     34 C          66.3076   91.7034   14.0025 C.3     1  UNL1        0.0177
@<TRIPOS>BOND
     1    33    34    1
     2     1    34    1
     3     1     2    1
     4     2     3    1
     5     3     4    1
     6     4     5    1
     7     5     7    1
     8     7    10    1
     9    10    11    1
    10    11    12    2
    11    11    13   am
    12    13    14    1
    13    14    15    1
    14    15    16    1
    15    16    17    1
    16    17    18    1
    17    18    19    1
    18    16    20    1
    19    20    21    1
    20     7     8    1
    21     8     9    1
    22     5     6    1
    23     6    23    1
    24    23    24    2
    25    23    25    2
    26    23    26    1
    27    26    27   ar
    28    27    28   ar
    29    28    29   ar
    30    29    30    1
    31    29    31   ar
    32    31    32   ar
    33     6     1    1
    34    32    26   ar
    35     9     7    1
    36    21    13    1
    37    19    16    1
    38    19    22    1
@<TRIPOS>MOLECULE
*****
 34 38 0 0 0
SMALL
GASTEIGER

@<TRIPOS>ATOM
      1 C          63.1319   85.7403   12.5888 C.3     1  UNL1        0.0795
      2 C          63.9559   85.3559   13.7820 C.3     1  UNL1        0.0178
      3 C          64.5198   86.4187   14.6778 C.3     1  UNL1        0.0029
      4 C          64.2599   87.8658   14.3806 C.3     1  UNL1        0.0178
      5 C          63.4360   88.2501   13.1875 C.3     1  UNL1        0.0799
      6 N          62.8721   87.1874   12.2917 N.3     1  UNL1       -0.1583
      7 C          63.1761   89.6972   12.8903 C.3     1  UNL1        0.0237
      8 C          61.6844   89.7309   13.0446 C.3     1  UNL1        0.0019
      9 C          62.4295   90.9816   12.6826 C.3     1  UNL1        0.0019
     10 C          64.5775   90.1662   12.6329 C.3     1  UNL1        0.0866
     11 C          65.0481   91.4716   13.2023 C.2     1  UNL1        0.2257
     12 O          65.0841   91.6721   14.6885 O.2     1  UNL1       -0.2749
     13 N          65.4828   92.5765   12.2857 N.am    1  UNL1       -0.2794
     14 C          65.9534   93.8819   12.8552 C.3     1  UNL1        0.0947
     15 C          66.3881   94.9869   11.9386 C.3     1  UNL1        0.0360
     16 C          66.3521   94.7864   10.4525 C.3     1  UNL1        0.0465
     17 C          66.8663   96.1824   10.6435 C.3     1  UNL1        0.0316
     18 C          66.9668   96.3490    9.1562 C.3     1  UNL1        0.0698
     19 N          66.4526   94.9528    8.9652 N.3     1  UNL1       -0.2994
     20 C          65.8815   93.4809    9.8831 C.3     1  UNL1        0.0360
     21 C          65.4468   92.3760   10.7996 C.3     1  UNL1        0.0947
     22 H          67.1181   94.3212    8.5195 H       1  UNL1        0.1232
     23 S          62.0481   87.5718   11.0986 S.O2    1  UNL1        0.0632
     24 O          62.9413   88.1207   10.2479 O.2     1  UNL1       -0.1528
     25 O          60.8199   87.0392   11.7752 O.2     1  UNL1       -0.1528
     26 C          61.2242   87.9562    9.9055 C.ar    1  UNL1        0.1222
     27 C          60.6118   86.8929    9.0428 C.ar    1  UNL1        0.0208
     28 C          59.7879   87.2774    7.8498 C.ar    1  UNL1        0.0128
     29 C          59.5763   88.7251    7.5194 C.ar    1  UNL1        0.0578
     30 CL         58.7524   89.1095    6.3264 Cl      1  UNL1       -0.0822
     31 C          60.1887   89.7884    8.3822 C.ar    1  UNL1        0.0128
     32 C          61.0126   89.4040    9.5752 C.ar    1  UNL1        0.0208
     33 C          63.4897   83.7674   10.9367 C.3     1  UNL1        0.0015
     34 C          62.5680   84.6777   11.6930 C.3     1  UNL1        0.0177
@<TRIPOS>BOND
     1    33    34    1
     2     1    34    1
     3     1     2    1
     4     2     3    1
     5     3     4    1
     6     4     5    1
     7     5     7    1
     8     7    10    1
     9    10    11    1
    10    11    12    2
    11    11    13   am
    12    13    14    1
    13    14    15    1
    14    15    16    1
    15    16    17    1
    16    17    18    1
    17    18    19    1
    18    16    20    1
    19    20    21    1
    20     7     8    1
    21     8     9    1
    22     5     6    1
    23     6    23    1
    24    23    24    2
    25    23    25    2
    26    23    26    1
    27    26    27   ar
    28    27    28   ar
    29    28    29   ar
    30    29    30    1
    31    29    31   ar
    32    31    32   ar
    33     6     1    1
    34    32    26   ar
    35     9     7    1
    36    21    13    1
    37    19    16    1
    38    19    22    1
@<TRIPOS>MOLECULE
*****
 34 38 0 0 0
SMALL
GASTEIGER

@<TRIPOS>ATOM
      1 C          65.1637   91.6527   12.5310 C.3     1  UNL1        0.0795
      2 C          66.2154   92.3262   13.3619 C.3     1  UNL1        0.0178
      3 C          66.3835   91.9536   14.8051 C.3     1  UNL1        0.0029
      4 C          65.4999   90.9075   15.4175 C.3     1  UNL1        0.0178
      5 C          64.4482   90.2341   14.5866 C.3     1  UNL1        0.0799
      6 N          64.2801   90.6067   13.1434 N.3     1  UNL1       -0.1583
      7 C          63.5647   89.1880   15.1990 C.3     1  UNL1        0.0237
      8 C          62.5382   90.0646   15.8531 C.3     1  UNL1        0.0019
      9 C          62.4311   88.5725   15.9648 C.3     1  UNL1        0.0019
     10 C          64.2842   87.9481   14.7576 C.3     1  UNL1        0.0866
     11 C          64.0161   86.6411   15.4430 C.2     1  UNL1        0.2257
     12 O          64.0299   86.5630   16.9409 O.2     1  UNL1       -0.2749
     13 N          63.7342   85.4121   14.6305 N.am    1  UNL1       -0.2794
     14 C          63.4661   84.1051   15.3159 C.3     1  UNL1        0.0947
     15 C          63.1842   82.8761   14.5035 C.3     1  UNL1        0.0360
     16 C          63.1704   82.9541   13.0056 C.3     1  UNL1        0.0465
     17 C          62.8673   81.5197   13.3224 C.3     1  UNL1        0.0316
     18 C          62.7718   81.2161   11.8565 C.3     1  UNL1        0.0698
     19 N          63.0750   82.6506   11.5397 N.3     1  UNL1       -0.2994
     20 C          63.4386   84.2611   12.3202 C.3     1  UNL1        0.0360
     21 C          63.7204   85.4902   13.1326 C.3     1  UNL1        0.0947
     22 H          62.3187   83.1403   11.0615 H       1  UNL1        0.1232
     23 S          63.2283   89.9331   12.3125 S.O2    1  UNL1        0.0632
     24 O          63.7547   88.7203   12.0397 O.2     1  UNL1       -0.1528
     25 O          62.3634   91.1542   12.4178 O.2     1  UNL1       -0.1528
     26 C          62.1766   89.2597   11.4817 C.ar    1  UNL1        0.1222
     27 C          61.1099   90.0771   10.8153 C.ar    1  UNL1        0.0208
     28 C          60.0582   89.4036    9.9845 C.ar    1  UNL1        0.0128
     29 C          60.0731   87.9127    9.8200 C.ar    1  UNL1        0.0578
     30 CL         59.0214   87.2393    8.9892 Cl      1  UNL1       -0.0822
     31 C          61.1398   87.0954   10.4864 C.ar    1  UNL1        0.0128
     32 C          62.1915   87.7688   11.3172 C.ar    1  UNL1        0.0208
     33 C          65.8385   93.1131   10.4909 C.3     1  UNL1        0.0015
     34 C          64.9955   92.0253   11.0878 C.3     1  UNL1        0.0177
@<TRIPOS>BOND
     1    33    34    1
     2     1    34    1
     3     1     2    1
     4     2     3    1
     5     3     4    1
     6     4     5    1
     7     5     7    1
     8     7    10    1
     9    10    11    1
    10    11    12    2
    11    11    13   am
    12    13    14    1
    13    14    15    1
    14    15    16    1
    15    16    17    1
    16    17    18    1
    17    18    19    1
    18    16    20    1
    19    20    21    1
    20     7     8    1
    21     8     9    1
    22     5     6    1
    23     6    23    1
    24    23    24    2
    25    23    25    2
    26    23    26    1
    27    26    27   ar
    28    27    28   ar
    29    28    29   ar
    30    29    30    1
    31    29    31   ar
    32    31    32   ar
    33     6     1    1
    34    32    26   ar
    35     9     7    1
    36    21    13    1
    37    19    16    1
    38    19    22    1
@<TRIPOS>MOLECULE
*****
 34 38 0 0 0
SMALL
GASTEIGER

@<TRIPOS>ATOM
      1 C          65.2298   92.0725   15.5115 C.3     1  UNL1        0.0795
      2 C          64.5275   91.5668   16.7368 C.3     1  UNL1        0.0178
      3 C          63.4517   90.5293   16.6102 C.3     1  UNL1        0.0029
      4 C          63.0780   89.9973   15.2585 C.3     1  UNL1        0.0178
      5 C          63.7802   90.5030   14.0332 C.3     1  UNL1        0.0799
      6 N          64.8560   91.5405   14.1597 N.3     1  UNL1       -0.1583
      7 C          63.4065   89.9710   12.6814 C.3     1  UNL1        0.0237
      8 C          62.9565   91.2388   12.0179 C.3     1  UNL1        0.0019
      9 C          62.9215   89.9435   11.2622 C.3     1  UNL1        0.0019
     10 C          63.7266   88.5185   12.8753 C.3     1  UNL1        0.0866
     11 C          63.0338   87.4801   12.0436 C.2     1  UNL1        0.2257
     12 O          62.2759   87.8868   10.8146 O.2     1  UNL1       -0.2749
     13 N          63.0988   86.0352   12.4407 N.am    1  UNL1       -0.2794
     14 C          62.4060   84.9968   11.6089 C.3     1  UNL1        0.0947
     15 C          62.4709   83.5518   12.0060 C.3     1  UNL1        0.0360
     16 C          63.2288   83.1451   13.2350 C.3     1  UNL1        0.0465
     17 C          62.6826   81.8655   12.6745 C.3     1  UNL1        0.0316
     18 C          63.3208   81.1016   13.7966 C.3     1  UNL1        0.0698
     19 N          63.8671   82.3813   14.3571 N.3     1  UNL1       -0.2994
     20 C          63.9216   84.1834   14.0667 C.3     1  UNL1        0.0360
     21 C          63.8567   85.6285   13.6697 C.3     1  UNL1        0.0947
     22 H          64.8858   82.4300   14.3674 H       1  UNL1        0.1232
     23 S          65.5582   92.0461   12.9344 S.O2    1  UNL1        0.0632
     24 O          64.7326   93.0007   12.4552 O.2     1  UNL1       -0.1528
     25 O          66.6788   91.0790   13.1776 O.2     1  UNL1       -0.1528
     26 C          66.2604   92.5516   11.7091 C.ar    1  UNL1        0.1222
     27 C          67.5333   91.9026   11.2526 C.ar    1  UNL1        0.0208
     28 C          68.2354   92.4082   10.0273 C.ar    1  UNL1        0.0128
     29 C          67.6647   93.5628    9.2585 C.ar    1  UNL1        0.0578
     30 CL         68.3669   94.0683    8.0332 Cl      1  UNL1       -0.0822
     31 C          66.3918   94.2118    9.7150 C.ar    1  UNL1        0.0128
     32 C          65.6896   93.7062   10.9403 C.ar    1  UNL1        0.0208
     33 C          67.6722   92.7189   16.1172 C.3     1  UNL1        0.0015
     34 C          66.3055   93.1100   15.6380 C.3     1  UNL1        0.0177
@<TRIPOS>BOND
     1    33    34    1
     2     1    34    1
     3     1     2    1
     4     2     3    1
     5     3     4    1
     6     4     5    1
     7     5     7    1
     8     7    10    1
     9    10    11    1
    10    11    12    2
    11    11    13   am
    12    13    14    1
    13    14    15    1
    14    15    16    1
    15    16    17    1
    16    17    18    1
    17    18    19    1
    18    16    20    1
    19    20    21    1
    20     7     8    1
    21     8     9    1
    22     5     6    1
    23     6    23    1
    24    23    24    2
    25    23    25    2
    26    23    26    1
    27    26    27   ar
    28    27    28   ar
    29    28    29   ar
    30    29    30    1
    31    29    31   ar
    32    31    32   ar
    33     6     1    1
    34    32    26   ar
    35     9     7    1
    36    21    13    1
    37    19    16    1
    38    19    22    1
@<TRIPOS>MOLECULE
*****
 34 38 0 0 0
SMALL
GASTEIGER

@<TRIPOS>ATOM
      1 C          63.5433   84.4078   10.6084 C.3     1  UNL1        0.0795
      2 C          63.5330   84.2498    9.1167 C.3     1  UNL1        0.0178
      3 C          62.8476   85.2717    8.2590 C.3     1  UNL1        0.0029
      4 C          62.1724   86.4517    8.8928 C.3     1  UNL1        0.0178
      5 C          62.1827   86.6098   10.3844 C.3     1  UNL1        0.0799
      6 N          62.8682   85.5878   11.2421 N.3     1  UNL1       -0.1583
      7 C          61.5075   87.7898   11.0182 C.3     1  UNL1        0.0237
      8 C          60.0892   87.5319   10.6037 C.3     1  UNL1        0.0019
      9 C          60.4211   88.7379   11.4316 C.3     1  UNL1        0.0019
     10 C          62.6913   88.4575   11.6528 C.3     1  UNL1        0.0866
     11 C          63.1549   89.7942   11.1545 C.2     1  UNL1        0.2257
     12 O          62.7224   90.2822    9.8036 O.2     1  UNL1       -0.2749
     13 N          64.0508   90.6429   12.0070 N.am    1  UNL1       -0.2794
     14 C          64.5144   91.9796   11.5088 C.3     1  UNL1        0.0947
     15 C          65.4104   92.8284   12.3612 C.3     1  UNL1        0.0360
     16 C          65.8429   92.3404   13.7121 C.3     1  UNL1        0.0465
     17 C          66.4892   93.6854   13.5601 C.3     1  UNL1        0.0316
     18 C          67.1101   93.5406   14.9178 C.3     1  UNL1        0.0698
     19 N          66.4637   92.1955   15.0699 N.3     1  UNL1       -0.2994
     20 C          65.3793   91.0037   14.2104 C.3     1  UNL1        0.0360
     21 C          64.4833   90.1549   13.3579 C.3     1  UNL1        0.0947
     22 H          65.7888   92.1416   15.8328 H       1  UNL1        0.1232
     23 S          62.8784   85.7459   12.7338 S.O2    1  UNL1        0.0632
     24 O          63.9430   86.5415   12.9706 O.2     1  UNL1       -0.1528
     25 O          61.6618   84.8742   12.8345 O.2     1  UNL1       -0.1528
     26 C          62.8887   85.9040   14.2254 C.ar    1  UNL1        0.1222
     27 C          62.1836   84.9018   15.0907 C.ar    1  UNL1        0.0208
     28 C          62.1939   85.0600   16.5823 C.ar    1  UNL1        0.0128
     29 C          62.9091   86.2202   17.2087 C.ar    1  UNL1        0.0578
     30 CL         62.9194   86.3783   18.7002 Cl      1  UNL1       -0.0822
     31 C          63.6141   87.2223   16.3433 C.ar    1  UNL1        0.0128
     32 C          63.6039   87.0642   14.8518 C.ar    1  UNL1        0.0208
     33 C          63.6212   82.0259   11.6429 C.3     1  UNL1        0.0015
     34 C          64.2287   83.3860   11.4661 C.3     1  UNL1        0.0177
@<TRIPOS>BOND
     1    33    34    1
     2     1    34    1
     3     1     2    1
     4     2     3    1
     5     3     4    1
     6     4     5    1
     7     5     7    1
     8     7    10    1
     9    10    11    1
    10    11    12    2
    11    11    13   am
    12    13    14    1
    13    14    15    1
    14    15    16    1
    15    16    17    1
    16    17    18    1
    17    18    19    1
    18    16    20    1
    19    20    21    1
    20     7     8    1
    21     8     9    1
    22     5     6    1
    23     6    23    1
    24    23    24    2
    25    23    25    2
    26    23    26    1
    27    26    27   ar
    28    27    28   ar
    29    28    29   ar
    30    29    30    1
    31    29    31   ar
    32    31    32   ar
    33     6     1    1
    34    32    26   ar
    35     9     7    1
    36    21    13    1
    37    19    16    1
    38    19    22    1
@<TRIPOS>MOLECULE
*****
 34 38 0 0 0
SMALL
GASTEIGER

@<TRIPOS>ATOM
      1 C          60.9395   92.6688    2.4665 C.3     1  UNL1        0.0795
      2 C          62.1099   92.0502    3.1719 C.3     1  UNL1        0.0178
      3 C          63.4954   92.2310    2.6264 C.3     1  UNL1        0.0029
      4 C          63.7107   93.0302    1.3754 C.3     1  UNL1        0.0178
      5 C          62.5403   93.6488    0.6700 C.3     1  UNL1        0.0799
      6 N          61.1548   93.4680    1.2156 N.3     1  UNL1       -0.1583
      7 C          62.7556   94.4480   -0.5809 C.3     1  UNL1        0.0237
      8 C          62.9977   95.8033    0.0145 C.3     1  UNL1        0.0019
      9 C          63.0290   95.6216   -1.4742 C.3     1  UNL1        0.0019
     10 C          62.5882   93.3703   -1.6107 C.3     1  UNL1        0.0866
     11 C          62.8588   93.6657   -3.0563 C.2     1  UNL1        0.2257
     12 O          64.2618   93.6073   -3.5838 O.2     1  UNL1       -0.2749
     13 N          61.7265   94.0193   -3.9742 N.am    1  UNL1       -0.2794
     14 C          61.9970   94.3146   -5.4198 C.3     1  UNL1        0.0947
     15 C          60.8648   94.6683   -6.3378 C.3     1  UNL1        0.0360
     16 C          59.4618   94.7266   -5.8103 C.3     1  UNL1        0.0465
     17 C          59.3443   95.0734   -7.2648 C.3     1  UNL1        0.0316
     18 C          57.8603   95.2267   -7.1085 C.3     1  UNL1        0.0698
     19 N          57.9779   94.8799   -5.6538 N.3     1  UNL1       -0.2994
     20 C          59.1912   94.4313   -4.3647 C.3     1  UNL1        0.0360
     21 C          60.3235   94.0776   -3.4467 C.3     1  UNL1        0.0947
     22 H          57.4959   94.0204   -5.3904 H       1  UNL1        0.1232
     23 S          59.9844   94.0867    0.5100 S.O2    1  UNL1        0.0632
     24 O          59.9249   95.3385    1.0118 O.2     1  UNL1       -0.1528
     25 O          59.7607   92.8073   -0.2405 O.2     1  UNL1       -0.1528
     26 C          58.8141   94.7052   -0.1954 C.ar    1  UNL1        0.1222
     27 C          57.6861   93.8412   -0.6765 C.ar    1  UNL1        0.0208
     28 C          56.5159   94.4598   -1.3819 C.ar    1  UNL1        0.0128
     29 C          56.4734   95.9423   -1.6064 C.ar    1  UNL1        0.0578
     30 CL         55.3031   96.5608   -2.3119 Cl      1  UNL1       -0.0822
     31 C          57.6013   96.8062   -1.1254 C.ar    1  UNL1        0.0128
     32 C          58.7716   96.1877   -0.4199 C.ar    1  UNL1        0.0208
     33 C          59.3529   92.2147    4.4731 C.3     1  UNL1        0.0015
     34 C          59.5540   92.4881    3.0119 C.3     1  UNL1        0.0177
@<TRIPOS>BOND
     1    33    34    1
     2     1    34    1
     3     1     2    1
     4     2     3    1
     5     3     4    1
     6     4     5    1
     7     5     7    1
     8     7    10    1
     9    10    11    1
    10    11    12    2
    11    11    13   am
    12    13    14    1
    13    14    15    1
    14    15    16    1
    15    16    17    1
    16    17    18    1
    17    18    19    1
    18    16    20    1
    19    20    21    1
    20     7     8    1
    21     8     9    1
    22     5     6    1
    23     6    23    1
    24    23    24    2
    25    23    25    2
    26    23    26    1
    27    26    27   ar
    28    27    28   ar
    29    28    29   ar
    30    29    30    1
    31    29    31   ar
    32    31    32   ar
    33     6     1    1
    34    32    26   ar
    35     9     7    1
    36    21    13    1
    37    19    16    1
    38    19    22    1
@<TRIPOS>MOLECULE
*****
 34 38 0 0 0
SMALL
GASTEIGER

@<TRIPOS>ATOM
      1 C          63.0735   85.4434   12.2675 C.3     1  UNL1        0.0795
      2 C          63.8947   84.9876   13.4371 C.3     1  UNL1        0.0178
      3 C          64.4004   85.9881   14.4337 C.3     1  UNL1        0.0029
      4 C          64.0851   87.4443   14.2608 C.3     1  UNL1        0.0178
      5 C          63.2639   87.9001   13.0912 C.3     1  UNL1        0.0799
      6 N          62.7582   86.8996   12.0946 N.3     1  UNL1       -0.1583
      7 C          62.9486   89.3563   12.9183 C.3     1  UNL1        0.0237
      8 C          61.5011   89.2657   12.5354 C.3     1  UNL1        0.0019
      9 C          62.1685   90.6055   12.6333 C.3     1  UNL1        0.0019
     10 C          64.2865   89.9528   13.2412 C.3     1  UNL1        0.0866
     11 C          64.4378   90.8571   14.4284 C.2     1  UNL1        0.2257
     12 O          63.2755   91.0881   15.3481 O.2     1  UNL1       -0.2749
     13 N          65.7512   91.5304   14.6957 N.am    1  UNL1       -0.2794
     14 C          65.9025   92.4347   15.8829 C.3     1  UNL1        0.0947
     15 C          67.2159   93.1081   16.1503 C.3     1  UNL1        0.0360
     16 C          68.3781   92.8771   15.2305 C.3     1  UNL1        0.0465
     17 C          68.8941   93.8166   16.2797 C.3     1  UNL1        0.0316
     18 C          70.2356   93.8293   15.6087 C.3     1  UNL1        0.0698
     19 N          69.7195   92.8896   14.5594 N.3     1  UNL1       -0.2994
     20 C          68.2268   91.9727   14.0434 C.3     1  UNL1        0.0360
     21 C          66.9134   91.2994   13.7759 C.3     1  UNL1        0.0947
     22 H          70.1869   91.9831   14.5460 H       1  UNL1        0.1232
     23 S          61.9370   87.3555   10.9249 S.O2    1  UNL1        0.0632
     24 O          62.8448   87.8736   10.0706 O.2     1  UNL1       -0.1528
     25 O          60.6927   86.8758   11.6117 O.2     1  UNL1       -0.1528
     26 C          61.1158   87.8113    9.7554 C.ar    1  UNL1        0.1222
     27 C          61.0522   89.2688    9.4062 C.ar    1  UNL1        0.0208
     28 C          60.2310   89.7245    8.2367 C.ar    1  UNL1        0.0128
     29 C          59.4734   88.7230    7.4163 C.ar    1  UNL1        0.0578
     30 CL         58.6522   89.1788    6.2468 Cl      1  UNL1       -0.0822
     31 C          59.5371   87.2656    7.7655 C.ar    1  UNL1        0.0128
     32 C          60.3583   86.8098    8.9351 C.ar    1  UNL1        0.0208
     33 C          63.5233   83.7772   10.3255 C.3     1  UNL1        0.0015
     34 C          62.5678   84.4431   11.2709 C.3     1  UNL1        0.0177
@<TRIPOS>BOND
     1    33    34    1
     2     1    34    1
     3     1     2    1
     4     2     3    1
     5     3     4    1
     6     4     5    1
     7     5     7    1
     8     7    10    1
     9    10    11    1
    10    11    12    2
    11    11    13   am
    12    13    14    1
    13    14    15    1
    14    15    16    1
    15    16    17    1
    16    17    18    1
    17    18    19    1
    18    16    20    1
    19    20    21    1
    20     7     8    1
    21     8     9    1
    22     5     6    1
    23     6    23    1
    24    23    24    2
    25    23    25    2
    26    23    26    1
    27    26    27   ar
    28    27    28   ar
    29    28    29   ar
    30    29    30    1
    31    29    31   ar
    32    31    32   ar
    33     6     1    1
    34    32    26   ar
    35     9     7    1
    36    21    13    1
    37    19    16    1
    38    19    22    1
