@<TRIPOS>MOLECULE
*****
 30 32 0 0 0
SMALL
GASTEIGER

@<TRIPOS>ATOM
      1 C          64.1511   89.1912   14.1544 C.3     1  UNL1        0.0926
      2 C          64.6566   90.3666   14.9373 C.3     1  UNL1        0.0887
      3 N          64.3551   91.6097   14.1538 N.3     1  UNL1       -0.2958
      4 C          63.6632   91.2025   12.8866 C.3     1  UNL1        0.0747
      5 C          63.5372   89.7078   12.8870 C.3     1  UNL1        0.0573
      6 H          65.2226   92.0985   13.9328 H       1  UNL1        0.1233
      7 C          62.9077   88.8759   11.8093 C.ar    1  UNL1       -0.0195
      8 C          62.8352   87.3850   11.9587 C.ar    1  UNL1       -0.0043
      9 C          62.2057   86.5531   10.8809 C.ar    1  UNL1        0.0006
     10 C          61.6487   87.2118    9.6538 C.ar    1  UNL1        0.0377
     11 C          61.7212   88.7026    9.5045 C.ar    1  UNL1        0.0006
     12 C          62.3506   89.5346   10.5822 C.ar    1  UNL1       -0.0043
     13 C          61.0192   86.3799    8.5760 C.3     1  UNL1        0.2828
     14 C          60.3896   85.5480    7.4983 C.3     1  UNL1        0.0771
     15 F          59.6651   86.8871    8.9754 F       1  UNL1       -0.1996
     16 F          62.3732   85.8727    8.1767 F       1  UNL1       -0.1996
     17 C          63.6474   87.3048   15.8684 C.2     1  UNL1        0.2269
     18 O          62.9591   88.2971   16.7582 O.2     1  UNL1       -0.2747
     19 N          64.2433   87.7518   14.5665 N.am    1  UNL1       -0.3040
     20 H          64.6950   87.1006   13.9825 H       1  UNL1        0.1494
     21 C          63.7396   85.8655   16.2805 C.3     1  UNL1        0.1113
     22 C          63.2559   82.6107   13.2109 C.ar    1  UNL1        0.0479
     23 C          64.4122   83.5618   13.1196 C.ar    1  UNL1        0.0142
     24 C          64.5734   84.6468   14.1429 C.ar    1  UNL1       -0.0025
     25 C          63.5784   84.7806   15.2573 C.ar    1  UNL1       -0.0130
     26 C          62.4221   83.8295   15.3485 C.ar    1  UNL1       -0.0025
     27 C          62.2608   82.7445   14.3253 C.ar    1  UNL1        0.0142
     28 C          62.5841   80.1767   12.5992 C.3     1  UNL1        0.1122
     29 N          63.0946   81.5258   12.1877 N.pl3   1  UNL1       -0.3041
     30 C          63.4437   81.7899   10.7530 C.3     1  UNL1        0.1122
@<TRIPOS>BOND
     1    28    29    1
     2    29    30    1
     3    29    22    1
     4    22    23   ar
     5    23    24   ar
     6    24    25   ar
     7    25    21    1
     8    21    17    1
     9    17    18    2
    10    17    19   am
    11     1    19    1
    12     1     2    1
    13     2     3    1
    14     3     4    1
    15     4     5    1
    16     5     7    1
    17     7     8   ar
    18     8     9   ar
    19     9    10   ar
    20    10    13    1
    21    13    14    1
    22    13    15    1
    23    13    16    1
    24    10    11   ar
    25    11    12   ar
    26    25    26   ar
    27    26    27   ar
    28    27    22   ar
    29     5     1    1
    30    12     7   ar
    31    19    20    1
    32     3     6    1
@<TRIPOS>MOLECULE
*****
 30 32 0 0 0
SMALL
GASTEIGER

@<TRIPOS>ATOM
      1 C          64.0241   86.4759   13.8508 C.3     1  UNL1        0.0926
      2 C          64.6177   85.4523   14.7727 C.3     1  UNL1        0.0887
      3 N          64.1908   84.0958   14.2957 N.3     1  UNL1       -0.2958
      4 C          63.3332   84.2810   13.0790 C.3     1  UNL1        0.0747
      5 C          63.2302   85.7520   12.8041 C.3     1  UNL1        0.0573
      6 H          63.6578   83.6238   15.0263 H       1  UNL1        0.1233
      7 C          62.4672   86.3874   11.6798 C.ar    1  UNL1       -0.0195
      8 C          61.6693   85.5344   10.7386 C.ar    1  UNL1       -0.0043
      9 C          60.9064   86.1699    9.6143 C.ar    1  UNL1        0.0006
     10 C          60.9413   87.6583    9.4311 C.ar    1  UNL1        0.0377
     11 C          61.7392   88.5112   10.3723 C.ar    1  UNL1        0.0006
     12 C          62.5021   87.8757   11.4966 C.ar    1  UNL1       -0.0043
     13 C          60.1783   88.2938    8.3068 C.3     1  UNL1        0.2828
     14 C          59.4154   88.9291    7.1824 C.3     1  UNL1        0.0771
     15 F          60.1819   86.9889    7.5669 F       1  UNL1       -0.1996
     16 F          60.1748   89.5986    9.0467 F       1  UNL1       -0.1996
     17 C          63.8035   88.6738   15.2185 C.2     1  UNL1        0.2269
     18 O          63.2424   87.8988   16.3736 O.2     1  UNL1       -0.2747
     19 N          64.1944   87.9624   13.9571 N.am    1  UNL1       -0.3040
     20 H          64.5627   88.4712   13.1990 H       1  UNL1        0.1494
     21 C          63.9739   90.1603   15.3247 C.3     1  UNL1        0.1113
     22 C          66.0826   92.4228   12.0559 C.ar    1  UNL1        0.0479
     23 C          64.6726   91.9528   11.8535 C.ar    1  UNL1        0.0142
     24 C          63.9697   91.1987   12.9431 C.ar    1  UNL1       -0.0025
     25 C          64.6768   90.9145   14.2351 C.ar    1  UNL1       -0.0130
     26 C          66.0868   91.3844   14.4375 C.ar    1  UNL1       -0.0025
     27 C          66.7897   92.1386   13.3480 C.ar    1  UNL1        0.0142
     28 C          67.7222   92.4585   10.0410 C.3     1  UNL1        0.1122
     29 N          66.7855   93.1769   10.9664 N.pl3   1  UNL1       -0.3041
     30 C          66.5518   94.6495   10.8022 C.3     1  UNL1        0.1122
@<TRIPOS>BOND
     1    28    29    1
     2    29    30    1
     3    29    22    1
     4    22    23   ar
     5    23    24   ar
     6    24    25   ar
     7    25    21    1
     8    21    17    1
     9    17    18    2
    10    17    19   am
    11     1    19    1
    12     1     2    1
    13     2     3    1
    14     3     4    1
    15     4     5    1
    16     5     7    1
    17     7     8   ar
    18     8     9   ar
    19     9    10   ar
    20    10    13    1
    21    13    14    1
    22    13    15    1
    23    13    16    1
    24    10    11   ar
    25    11    12   ar
    26    25    26   ar
    27    26    27   ar
    28    27    22   ar
    29     5     1    1
    30    12     7   ar
    31    19    20    1
    32     3     6    1
@<TRIPOS>MOLECULE
*****
 30 32 0 0 0
SMALL
GASTEIGER

@<TRIPOS>ATOM
      1 C          64.0022   86.4475   13.8208 C.3     1  UNL1        0.0926
      2 C          64.5897   85.4108   14.7319 C.3     1  UNL1        0.0887
      3 N          64.1616   84.0615   14.2359 N.3     1  UNL1       -0.2958
      4 C          63.3094   84.2643   13.0182 C.3     1  UNL1        0.0747
      5 C          63.2110   85.7389   12.7617 C.3     1  UNL1        0.0573
      6 H          63.6246   83.5815   14.9582 H       1  UNL1        0.1233
      7 C          62.4541   86.3905   11.6425 C.ar    1  UNL1       -0.0195
      8 C          62.4699   87.8833   11.4958 C.ar    1  UNL1       -0.0043
      9 C          61.7131   88.5349   10.3766 C.ar    1  UNL1        0.0006
     10 C          60.9404   87.6938    9.4041 C.ar    1  UNL1        0.0377
     11 C          60.9246   86.2011    9.5509 C.ar    1  UNL1        0.0006
     12 C          61.6815   85.5495   10.6701 C.ar    1  UNL1       -0.0043
     13 C          60.1835   88.3454    8.2850 C.3     1  UNL1        0.2828
     14 C          59.4267   88.9970    7.1659 C.3     1  UNL1        0.0771
     15 F          60.1884   89.6432    9.0373 F       1  UNL1       -0.1996
     16 F          60.1787   87.0477    7.5327 F       1  UNL1       -0.1996
     17 C          63.7946   88.6263   15.2207 C.2     1  UNL1        0.2269
     18 O          63.2402   87.8359   16.3687 O.2     1  UNL1       -0.2747
     19 N          64.1756   87.9321   13.9468 N.am    1  UNL1       -0.3040
     20 H          64.5395   88.4509   13.1933 H       1  UNL1        0.1494
     21 C          63.9680   90.1109   15.3466 C.3     1  UNL1        0.1113
     22 C          66.0296   92.4205   12.0807 C.ar    1  UNL1        0.0479
     23 C          66.7465   92.1397   13.3681 C.ar    1  UNL1        0.0142
     24 C          66.0592   91.3698   14.4567 C.ar    1  UNL1       -0.0025
     25 C          64.6552   90.8808   14.2580 C.ar    1  UNL1       -0.0130
     26 C          63.9384   91.1615   12.9706 C.ar    1  UNL1       -0.0025
     27 C          64.6256   91.9314   11.8820 C.ar    1  UNL1        0.0142
     28 C          67.6708   92.4933   10.0680 C.3     1  UNL1        0.1122
     29 N          66.7168   93.1903   10.9921 N.pl3   1  UNL1       -0.3041
     30 C          66.4500   94.6572   10.8276 C.3     1  UNL1        0.1122
@<TRIPOS>BOND
     1    28    29    1
     2    29    30    1
     3    29    22    1
     4    22    23   ar
     5    23    24   ar
     6    24    25   ar
     7    25    21    1
     8    21    17    1
     9    17    18    2
    10    17    19   am
    11     1    19    1
    12     1     2    1
    13     2     3    1
    14     3     4    1
    15     4     5    1
    16     5     7    1
    17     7     8   ar
    18     8     9   ar
    19     9    10   ar
    20    10    13    1
    21    13    14    1
    22    13    15    1
    23    13    16    1
    24    10    11   ar
    25    11    12   ar
    26    25    26   ar
    27    26    27   ar
    28    27    22   ar
    29     5     1    1
    30    12     7   ar
    31    19    20    1
    32     3     6    1
@<TRIPOS>MOLECULE
*****
 30 32 0 0 0
SMALL
GASTEIGER

@<TRIPOS>ATOM
      1 C          61.3228   88.6034    9.4680 C.3     1  UNL1        0.0926
      2 C          60.3376   89.3733    8.6393 C.3     1  UNL1        0.0887
      3 N          59.4653   88.3869    7.9208 N.3     1  UNL1       -0.2958
      4 C          59.9114   87.0074    8.3056 C.3     1  UNL1        0.0747
      5 C          61.0594   87.1412    9.2618 C.3     1  UNL1        0.0573
      6 H          59.5585   88.5123    6.9129 H       1  UNL1        0.1233
      7 C          61.8118   86.0113    9.8998 C.ar    1  UNL1       -0.0195
      8 C          61.6587   85.7426   11.3676 C.ar    1  UNL1       -0.0043
      9 C          62.4111   84.6126   12.0056 C.ar    1  UNL1        0.0006
     10 C          63.3165   83.7513   11.1758 C.ar    1  UNL1        0.0377
     11 C          63.4695   84.0200    9.7081 C.ar    1  UNL1        0.0006
     12 C          62.7171   85.1500    9.0701 C.ar    1  UNL1       -0.0043
     13 C          64.0689   82.6213   11.8138 C.3     1  UNL1        0.2828
     14 C          64.8213   81.4914   12.4518 C.3     1  UNL1        0.0771
     15 F          64.6709   83.5786   12.7994 F       1  UNL1       -0.1996
     16 F          63.4670   81.6640   10.8282 F       1  UNL1       -0.1996
     17 C          62.0821   89.5019   11.7846 C.2     1  UNL1        0.2269
     18 O          60.7172   89.2223   12.3404 O.2     1  UNL1       -0.2747
     19 N          62.3849   89.1925   10.3485 N.am    1  UNL1       -0.3040
     20 H          63.2807   89.3760    9.9837 H       1  UNL1        0.1494
     21 C          63.1442   90.0908   12.6649 C.3     1  UNL1        0.1113
     22 C          65.7294   93.4425   11.1373 C.ar    1  UNL1        0.0479
     23 C          65.8710   92.9724   12.5546 C.ar    1  UNL1        0.0142
     24 C          65.0092   91.8551   13.0638 C.ar    1  UNL1       -0.0025
     25 C          64.0059   91.2081   12.1557 C.ar    1  UNL1       -0.0130
     26 C          63.8644   91.6782   10.7383 C.ar    1  UNL1       -0.0025
     27 C          64.7260   92.7954   10.2291 C.ar    1  UNL1        0.0142
     28 C          66.4308   95.9436   11.1839 C.3     1  UNL1        0.1122
     29 N          66.5911   94.5597   10.6280 N.pl3   1  UNL1       -0.3041
     30 C          67.6131   94.2929    9.5630 C.3     1  UNL1        0.1122
@<TRIPOS>BOND
     1    28    29    1
     2    29    30    1
     3    29    22    1
     4    22    23   ar
     5    23    24   ar
     6    24    25   ar
     7    25    21    1
     8    21    17    1
     9    17    18    2
    10    17    19   am
    11     1    19    1
    12     1     2    1
    13     2     3    1
    14     3     4    1
    15     4     5    1
    16     5     7    1
    17     7     8   ar
    18     8     9   ar
    19     9    10   ar
    20    10    13    1
    21    13    14    1
    22    13    15    1
    23    13    16    1
    24    10    11   ar
    25    11    12   ar
    26    25    26   ar
    27    26    27   ar
    28    27    22   ar
    29     5     1    1
    30    12     7   ar
    31    19    20    1
    32     3     6    1
@<TRIPOS>MOLECULE
*****
 30 32 0 0 0
SMALL
GASTEIGER

@<TRIPOS>ATOM
      1 C          60.1604   88.5044    9.3399 C.3     1  UNL1        0.0926
      2 C          59.3712   89.1924    8.2657 C.3     1  UNL1        0.0887
      3 N          59.3745   88.3114    7.0517 N.3     1  UNL1       -0.2958
      4 C          60.1658   87.0789    7.3756 C.3     1  UNL1        0.0747
      5 C          60.6515   87.1982    8.7897 C.3     1  UNL1        0.0573
      6 H          59.8047   88.8031    6.2684 H       1  UNL1        0.1233
      7 C          61.4825   86.1886    9.5246 C.ar    1  UNL1       -0.0195
      8 C          61.2938   85.9929   10.9999 C.ar    1  UNL1       -0.0043
      9 C          62.1247   84.9833   11.7348 C.ar    1  UNL1        0.0006
     10 C          63.1444   84.1693   10.9946 C.ar    1  UNL1        0.0377
     11 C          63.3330   84.3649    9.5194 C.ar    1  UNL1        0.0006
     12 C          62.5020   85.3746    8.7845 C.ar    1  UNL1       -0.0043
     13 C          63.9753   83.1596   11.7295 C.3     1  UNL1        0.2828
     14 C          64.8063   82.1500   12.4644 C.3     1  UNL1        0.0771
     15 F          64.9770   83.1713   10.6130 F       1  UNL1       -0.1996
     16 F          62.9736   83.1479   12.8460 F       1  UNL1       -0.1996
     17 C          61.7774   89.5324   11.0945 C.2     1  UNL1        0.2269
     18 O          62.8872   89.5087   10.0857 O.2     1  UNL1       -0.2747
     19 N          60.4140   89.0303   10.7217 N.am    1  UNL1       -0.3040
     20 H          59.6856   89.0459   11.3838 H       1  UNL1        0.1494
     21 C          62.0309   90.0583   12.4762 C.3     1  UNL1        0.1113
     22 C          66.0730   91.7237   13.5434 C.ar    1  UNL1        0.0479
     23 C          65.3761   92.1863   12.2982 C.ar    1  UNL1        0.0142
     24 C          64.0287   91.6312   11.9425 C.ar    1  UNL1       -0.0025
     25 C          63.3783   90.6135   12.8319 C.ar    1  UNL1       -0.0130
     26 C          64.0751   90.1508   14.0771 C.ar    1  UNL1       -0.0025
     27 C          65.4224   90.7059   14.4328 C.ar    1  UNL1        0.0142
     28 C          67.5539   93.2576   15.0278 C.3     1  UNL1        0.1122
     29 N          67.4203   92.2788   13.8991 N.pl3   1  UNL1       -0.3041
     30 C          68.6339   91.8551   13.1261 C.3     1  UNL1        0.1122
@<TRIPOS>BOND
     1    28    29    1
     2    29    30    1
     3    29    22    1
     4    22    23   ar
     5    23    24   ar
     6    24    25   ar
     7    25    21    1
     8    21    17    1
     9    17    18    2
    10    17    19   am
    11     1    19    1
    12     1     2    1
    13     2     3    1
    14     3     4    1
    15     4     5    1
    16     5     7    1
    17     7     8   ar
    18     8     9   ar
    19     9    10   ar
    20    10    13    1
    21    13    14    1
    22    13    15    1
    23    13    16    1
    24    10    11   ar
    25    11    12   ar
    26    25    26   ar
    27    26    27   ar
    28    27    22   ar
    29     5     1    1
    30    12     7   ar
    31    19    20    1
    32     3     6    1
@<TRIPOS>MOLECULE
*****
 30 32 0 0 0
SMALL
GASTEIGER

@<TRIPOS>ATOM
      1 C          61.2241   87.9597    9.0207 C.3     1  UNL1        0.0926
      2 C          60.0379   87.8507    8.1091 C.3     1  UNL1        0.0887
      3 N          59.3081   89.1608    8.1393 N.3     1  UNL1       -0.2958
      4 C          60.0433   90.0796    9.0696 C.3     1  UNL1        0.0747
      5 C          61.2275   89.3372    9.6143 C.3     1  UNL1        0.0573
      6 H          58.3553   89.0187    8.4745 H       1  UNL1        0.1233
      7 C          62.2376   89.8775   10.5826 C.ar    1  UNL1       -0.0195
      8 C          63.0194   91.1111   10.2405 C.ar    1  UNL1       -0.0043
      9 C          64.0295   91.6515   11.2088 C.ar    1  UNL1        0.0006
     10 C          64.2579   90.9582   12.5193 C.ar    1  UNL1        0.0377
     11 C          63.4761   89.7246   12.8614 C.ar    1  UNL1        0.0006
     12 C          62.4660   89.1843   11.8931 C.ar    1  UNL1       -0.0043
     13 C          65.2680   91.4985   13.4876 C.3     1  UNL1        0.2828
     14 C          66.2781   92.0389   14.4559 C.3     1  UNL1        0.0771
     15 F          65.2931   92.7970   12.7369 F       1  UNL1       -0.1996
     16 F          65.2430   90.2001   14.2383 F       1  UNL1       -0.1996
     17 C          62.3200   85.6931    8.3791 C.2     1  UNL1        0.2269
     18 O          61.4035   85.5846    7.1966 O.2     1  UNL1       -0.2747
     19 N          62.2303   86.8805    9.2911 N.am    1  UNL1       -0.3040
     20 H          62.8318   86.9517   10.0673 H       1  UNL1        0.1494
     21 C          63.3261   84.6140    8.6496 C.3     1  UNL1        0.1113
     22 C          63.6213   82.7900   12.7528 C.ar    1  UNL1        0.0479
     23 C          62.7505   83.9902   12.5265 C.ar    1  UNL1        0.0142
     24 C          62.6521   84.5982   11.1587 C.ar    1  UNL1       -0.0025
     25 C          63.4245   84.0060   10.0174 C.ar    1  UNL1       -0.0130
     26 C          64.2953   82.8058   10.2437 C.ar    1  UNL1       -0.0025
     27 C          64.3937   82.1978   11.6114 C.ar    1  UNL1        0.0142
     28 C          63.5386   80.7037   14.2989 C.3     1  UNL1        0.1122
     29 N          63.7197   82.1820   14.1205 N.pl3   1  UNL1       -0.3041
     30 C          63.9993   83.0522   15.3098 C.3     1  UNL1        0.1122
@<TRIPOS>BOND
     1    28    29    1
     2    29    30    1
     3    29    22    1
     4    22    23   ar
     5    23    24   ar
     6    24    25   ar
     7    25    21    1
     8    21    17    1
     9    17    18    2
    10    17    19   am
    11     1    19    1
    12     1     2    1
    13     2     3    1
    14     3     4    1
    15     4     5    1
    16     5     7    1
    17     7     8   ar
    18     8     9   ar
    19     9    10   ar
    20    10    13    1
    21    13    14    1
    22    13    15    1
    23    13    16    1
    24    10    11   ar
    25    11    12   ar
    26    25    26   ar
    27    26    27   ar
    28    27    22   ar
    29     5     1    1
    30    12     7   ar
    31    19    20    1
    32     3     6    1
@<TRIPOS>MOLECULE
*****
 30 32 0 0 0
SMALL
GASTEIGER

@<TRIPOS>ATOM
      1 C          63.0265   83.1106   12.6578 C.3     1  UNL1        0.0926
      2 C          62.9888   81.6705   13.0758 C.3     1  UNL1        0.0887
      3 N          63.4465   81.5896   14.5020 N.3     1  UNL1       -0.2958
      4 C          63.7671   82.9798   14.9654 C.3     1  UNL1        0.0747
      5 C          63.5075   83.9197   13.8256 C.3     1  UNL1        0.0573
      6 H          64.2785   81.0029   14.5658 H       1  UNL1        0.1233
      7 C          63.6959   85.4077   13.8496 C.ar    1  UNL1       -0.0195
      8 C          63.1745   86.2478   12.7215 C.ar    1  UNL1       -0.0043
      9 C          63.3629   87.7358   12.7455 C.ar    1  UNL1        0.0006
     10 C          64.0726   88.3836   13.8973 C.ar    1  UNL1        0.0377
     11 C          64.5940   87.5434   15.0252 C.ar    1  UNL1        0.0006
     12 C          64.4056   86.0555   15.0013 C.ar    1  UNL1       -0.0043
     13 C          64.2610   89.8715   13.9212 C.3     1  UNL1        0.2828
     14 C          64.4494   91.3594   13.9452 C.3     1  UNL1        0.0771
     15 F          64.5718   89.8086   15.3874 F       1  UNL1       -0.1996
     16 F          63.9503   89.9344   12.4551 F       1  UNL1       -0.1996
     17 C          63.6329   83.5914   10.1777 C.2     1  UNL1        0.2269
     18 O          64.9936   82.9988   10.3955 O.2     1  UNL1       -0.2747
     19 N          62.6494   83.6472   11.3088 N.am    1  UNL1       -0.3040
     20 H          61.7563   84.0361   11.1658 H       1  UNL1        0.1494
     21 C          63.2557   84.1280    8.8287 C.3     1  UNL1        0.1113
     22 C          60.7188   87.8310    8.5092 C.ar    1  UNL1        0.0479
     23 C          61.9521   87.8382    9.3629 C.ar    1  UNL1        0.0142
     24 C          62.7978   86.6039    9.4694 C.ar    1  UNL1       -0.0025
     25 C          62.4101   85.3624    8.7222 C.ar    1  UNL1       -0.0130
     26 C          61.1768   85.3552    7.8685 C.ar    1  UNL1       -0.0025
     27 C          60.3311   86.5894    7.7620 C.ar    1  UNL1        0.0142
     28 C          59.7855   90.0165    9.5592 C.3     1  UNL1        0.1122
     29 N          59.8731   89.0653    8.4027 N.pl3   1  UNL1       -0.3041
     30 C          59.1151   89.3484    7.1396 C.3     1  UNL1        0.1122
@<TRIPOS>BOND
     1    28    29    1
     2    29    30    1
     3    29    22    1
     4    22    23   ar
     5    23    24   ar
     6    24    25   ar
     7    25    21    1
     8    21    17    1
     9    17    18    2
    10    17    19   am
    11     1    19    1
    12     1     2    1
    13     2     3    1
    14     3     4    1
    15     4     5    1
    16     5     7    1
    17     7     8   ar
    18     8     9   ar
    19     9    10   ar
    20    10    13    1
    21    13    14    1
    22    13    15    1
    23    13    16    1
    24    10    11   ar
    25    11    12   ar
    26    25    26   ar
    27    26    27   ar
    28    27    22   ar
    29     5     1    1
    30    12     7   ar
    31    19    20    1
    32     3     6    1
@<TRIPOS>MOLECULE
*****
 30 32 0 0 0
SMALL
GASTEIGER

@<TRIPOS>ATOM
      1 C          62.8083   81.8062   12.4267 C.3     1  UNL1        0.0926
      2 C          62.8695   80.3210   12.2257 C.3     1  UNL1        0.0887
      3 N          63.2149   79.6889   13.5414 N.3     1  UNL1       -0.2958
      4 C          63.3673   80.7836   14.5556 C.3     1  UNL1        0.0747
      5 C          63.1160   82.0921   13.8667 C.3     1  UNL1        0.0573
      6 H          64.0894   79.1707   13.4574 H       1  UNL1        0.1233
      7 C          63.1640   83.4484   14.5057 C.ar    1  UNL1       -0.0195
      8 C          64.1470   84.4719   14.0198 C.ar    1  UNL1       -0.0043
      9 C          64.1950   85.8282   14.6587 C.ar    1  UNL1        0.0006
     10 C          63.2600   86.1610   15.7835 C.ar    1  UNL1        0.0377
     11 C          62.2771   85.1374   16.2694 C.ar    1  UNL1        0.0006
     12 C          62.2291   83.7811   15.6304 C.ar    1  UNL1       -0.0043
     13 C          63.3080   87.5172   16.4225 C.3     1  UNL1        0.2828
     14 C          63.3560   88.8735   17.0613 C.3     1  UNL1        0.0771
     15 F          64.1867   88.0098   15.3109 F       1  UNL1       -0.1996
     16 F          62.4294   87.0247   17.5339 F       1  UNL1       -0.1996
     17 C          63.5850   83.3452   10.4829 C.2     1  UNL1        0.2269
     18 O          64.9891   82.8438   10.6470 O.2     1  UNL1       -0.2747
     19 N          62.4946   82.8265   11.3728 N.am    1  UNL1       -0.3040
     20 H          61.5730   83.1556   11.2651 H       1  UNL1        0.1494
     21 C          63.2712   84.3654    9.4290 C.3     1  UNL1        0.1113
     22 C          60.8628   88.0186   10.4800 C.ar    1  UNL1        0.0479
     23 C          60.8022   87.4542    9.0915 C.ar    1  UNL1        0.0142
     24 C          61.6050   86.2365    8.7412 C.ar    1  UNL1       -0.0025
     25 C          62.4684   85.5832    9.7793 C.ar    1  UNL1       -0.0130
     26 C          62.5289   86.1475   11.1678 C.ar    1  UNL1       -0.0025
     27 C          61.7262   87.3652   11.5181 C.ar    1  UNL1        0.0142
     28 C          59.9954   90.3919    9.8763 C.3     1  UNL1        0.1122
     29 N          60.0600   89.2363   10.8303 N.pl3   1  UNL1       -0.3041
     30 C          59.3219   89.2983   12.1347 C.3     1  UNL1        0.1122
@<TRIPOS>BOND
     1    28    29    1
     2    29    30    1
     3    29    22    1
     4    22    23   ar
     5    23    24   ar
     6    24    25   ar
     7    25    21    1
     8    21    17    1
     9    17    18    2
    10    17    19   am
    11     1    19    1
    12     1     2    1
    13     2     3    1
    14     3     4    1
    15     4     5    1
    16     5     7    1
    17     7     8   ar
    18     8     9   ar
    19     9    10   ar
    20    10    13    1
    21    13    14    1
    22    13    15    1
    23    13    16    1
    24    10    11   ar
    25    11    12   ar
    26    25    26   ar
    27    26    27   ar
    28    27    22   ar
    29     5     1    1
    30    12     7   ar
    31    19    20    1
    32     3     6    1
@<TRIPOS>MOLECULE
*****
 30 32 0 0 0
SMALL
GASTEIGER

@<TRIPOS>ATOM
      1 C          60.4648   88.2961    8.7644 C.3     1  UNL1        0.0926
      2 C          59.5562   88.8444    7.7043 C.3     1  UNL1        0.0887
      3 N          59.1815   87.7183    6.7870 N.3     1  UNL1       -0.2958
      4 C          59.8586   86.4740    7.2802 C.3     1  UNL1        0.0747
      5 C          60.6517   86.8311    8.5023 C.3     1  UNL1        0.0573
      6 H          59.4907   87.9276    5.8378 H       1  UNL1        0.1233
      7 C          61.4853   85.8886    9.3188 C.ar    1  UNL1       -0.0195
      8 C          61.3062   85.8257   10.8068 C.ar    1  UNL1       -0.0043
      9 C          62.1398   84.8832   11.6234 C.ar    1  UNL1        0.0006
     10 C          63.1525   84.0035   10.9521 C.ar    1  UNL1        0.0377
     11 C          63.3316   84.0664    9.4641 C.ar    1  UNL1        0.0006
     12 C          62.4980   85.0089    8.6476 C.ar    1  UNL1       -0.0043
     13 C          63.9861   83.0610   11.7686 C.3     1  UNL1        0.2828
     14 C          64.8198   82.1186   12.5852 C.3     1  UNL1        0.0771
     15 F          64.7140   84.2264   12.3706 F       1  UNL1       -0.1996
     16 F          63.2583   81.8958   11.1666 F       1  UNL1       -0.1996
     17 C          60.3878   89.1450   11.2187 C.2     1  UNL1        0.2269
     18 O          59.0829   88.4342   11.4236 O.2     1  UNL1       -0.2747
     19 N          61.0788   89.0759    9.8892 N.am    1  UNL1       -0.3040
     20 H          61.9352   89.5424    9.7547 H       1  UNL1        0.1494
     21 C          61.0017   89.9248   12.3434 C.3     1  UNL1        0.1113
     22 C          65.0520   91.8155   11.8223 C.ar    1  UNL1        0.0479
     23 C          64.6553   91.2468   13.1524 C.ar    1  UNL1        0.0142
     24 C          63.3052   90.6165   13.3261 C.ar    1  UNL1       -0.0025
     25 C          62.3518   90.5550   12.1697 C.ar    1  UNL1       -0.0130
     26 C          62.7485   91.1238   10.8396 C.ar    1  UNL1       -0.0025
     27 C          64.0985   91.7540   10.6659 C.ar    1  UNL1        0.0142
     28 C          66.7753   93.0692   10.3364 C.3     1  UNL1        0.1122
     29 N          66.4020   92.4457   11.6486 N.pl3   1  UNL1       -0.3041
     30 C          67.3786   92.4525   12.7870 C.3     1  UNL1        0.1122
@<TRIPOS>BOND
     1    28    29    1
     2    29    30    1
     3    29    22    1
     4    22    23   ar
     5    23    24   ar
     6    24    25   ar
     7    25    21    1
     8    21    17    1
     9    17    18    2
    10    17    19   am
    11     1    19    1
    12     1     2    1
    13     2     3    1
    14     3     4    1
    15     4     5    1
    16     5     7    1
    17     7     8   ar
    18     8     9   ar
    19     9    10   ar
    20    10    13    1
    21    13    14    1
    22    13    15    1
    23    13    16    1
    24    10    11   ar
    25    11    12   ar
    26    25    26   ar
    27    26    27   ar
    28    27    22   ar
    29     5     1    1
    30    12     7   ar
    31    19    20    1
    32     3     6    1
