@<TRIPOS>MOLECULE
*****
 26 28 0 0 0
SMALL
GASTEIGER

@<TRIPOS>ATOM
      1 C          64.9924   92.0045   12.7187 C.ar    1  UNL1        0.1453
      2 C          63.9163   91.0953   12.2035 C.ar    1  UNL1        0.0376
      3 C          63.5774   89.8376   12.9474 C.ar    1  UNL1        0.0076
      4 C          64.3145   89.4891   14.2064 C.ar    1  UNL1        0.0536
      5 C          65.3906   90.3983   14.7216 C.ar    1  UNL1        0.0076
      6 C          65.7296   91.6560   13.9777 C.ar    1  UNL1        0.0376
      7 C          63.9756   88.2315   14.9503 C.2     1  UNL1        0.2461
      8 O          63.3138   88.3101   16.2941 O.2     1  UNL1       -0.2701
      9 N          64.2984   86.8951   14.3504 N.am    1  UNL1       -0.2956
     10 H          64.7327   86.8434   13.4684 H       1  UNL1        0.1501
     11 C          63.9595   85.6374   15.0942 C.3     1  UNL1        0.1361
     12 C          63.4268   84.4477   14.3522 C.ar    1  UNL1        0.0821
     13 C          63.2247   84.5185   12.8676 C.ar    1  UNL1        0.0371
     14 C          62.6920   83.3286   12.1256 C.ar    1  UNL1        0.1019
     15 N          62.3613   82.0680   12.8682 N.ar    1  UNL1       -0.2224
     16 C          62.5634   81.9972   14.3528 C.ar    1  UNL1        0.1986
     17 N          63.0961   83.1870   15.0948 N.ar    1  UNL1       -0.2266
     18 O          65.3314   93.2622   11.9748 O.3     1  UNL1       -0.4528
     19 C          66.5771   94.4336   10.0188 C.ar    1  UNL1        0.1029
     20 C          67.6339   94.4138    8.9546 C.ar    1  UNL1        0.0134
     21 C          68.5019   93.2027    8.7820 C.ar    1  UNL1        0.0009
     22 C          68.3130   92.0114    9.6737 C.ar    1  UNL1        0.0032
     23 C          67.2562   92.0312   10.7379 C.ar    1  UNL1        0.0382
     24 C          66.3883   93.2424   10.9105 C.ar    1  UNL1        0.1548
     25 N          64.8412   96.8559   10.3640 N.1     1  UNL1       -0.1907
     26 C          65.7092   95.6448   10.1914 C.1     1  UNL1        0.1035
@<TRIPOS>BOND
     1    25    26    3
     2    26    19    1
     3    19    20   ar
     4    20    21   ar
     5    21    22   ar
     6    22    23   ar
     7    23    24   ar
     8    24    18    1
     9    18     1    1
    10     1     2   ar
    11     2     3   ar
    12     3     4   ar
    13     4     7    1
    14     7     8    2
    15     7     9   am
    16     9    11    1
    17    11    12    1
    18    12    13   ar
    19    13    14   ar
    20    14    15   ar
    21    15    16   ar
    22    16    17   ar
    23     4     5   ar
    24     5     6   ar
    25    24    19   ar
    26     6     1   ar
    27    17    12   ar
    28     9    10    1
@<TRIPOS>MOLECULE
*****
 26 28 0 0 0
SMALL
GASTEIGER

@<TRIPOS>ATOM
      1 C          63.8828   89.9943   15.5784 C.ar    1  UNL1        0.1453
      2 C          64.4452   89.0538   14.5540 C.ar    1  UNL1        0.0376
      3 C          64.2579   87.5739   14.7115 C.ar    1  UNL1        0.0076
      4 C          63.5081   87.0344   15.8934 C.ar    1  UNL1        0.0536
      5 C          62.9458   87.9748   16.9178 C.ar    1  UNL1        0.0076
      6 C          63.1331   89.4548   16.7603 C.ar    1  UNL1        0.0376
      7 C          63.3208   85.5546   16.0509 C.2     1  UNL1        0.2461
      8 O          62.3920   85.0239   17.1024 O.2     1  UNL1       -0.2701
      9 N          64.0622   84.6053   15.1568 N.am    1  UNL1       -0.2956
     10 H          64.6717   84.9536   14.4666 H       1  UNL1        0.1501
     11 C          63.8748   83.1255   15.3143 C.3     1  UNL1        0.1361
     12 C          63.5025   82.2862   14.1281 C.ar    1  UNL1        0.0821
     13 C          63.8773   82.7328   12.7461 C.ar    1  UNL1        0.0371
     14 C          63.5049   81.8934   11.5599 C.ar    1  UNL1        0.1019
     15 N          62.7577   80.6077   11.7558 N.ar    1  UNL1       -0.2224
     16 C          62.3829   80.1611   13.1379 C.ar    1  UNL1        0.1986
     17 N          62.7552   81.0004   14.3240 N.ar    1  UNL1       -0.2266
     18 O          64.0702   91.4741   15.4209 O.3     1  UNL1       -0.4528
     19 C          65.9075   92.2636   13.7623 C.ar    1  UNL1        0.1029
     20 C          67.2759   92.8237   13.5099 C.ar    1  UNL1        0.0134
     21 C          68.1755   93.1544   14.6638 C.ar    1  UNL1        0.0009
     22 C          67.7067   92.9250   16.0700 C.ar    1  UNL1        0.0032
     23 C          66.3382   92.3649   16.3224 C.ar    1  UNL1        0.0382
     24 C          65.4387   92.0342   15.1685 C.ar    1  UNL1        0.1548
     25 N          64.1084   91.6023   11.4545 N.1     1  UNL1       -0.1907
     26 C          65.0080   91.9330   12.6084 C.1     1  UNL1        0.1035
@<TRIPOS>BOND
     1    25    26    3
     2    26    19    1
     3    19    20   ar
     4    20    21   ar
     5    21    22   ar
     6    22    23   ar
     7    23    24   ar
     8    24    18    1
     9    18     1    1
    10     1     2   ar
    11     2     3   ar
    12     3     4   ar
    13     4     7    1
    14     7     8    2
    15     7     9   am
    16     9    11    1
    17    11    12    1
    18    12    13   ar
    19    13    14   ar
    20    14    15   ar
    21    15    16   ar
    22    16    17   ar
    23     4     5   ar
    24     5     6   ar
    25    24    19   ar
    26     6     1   ar
    27    17    12   ar
    28     9    10    1
@<TRIPOS>MOLECULE
*****
 26 28 0 0 0
SMALL
GASTEIGER

@<TRIPOS>ATOM
      1 C          64.2200   91.7925   11.4737 C.ar    1  UNL1        0.1453
      2 C          63.4625   91.3315   10.2639 C.ar    1  UNL1        0.0376
      3 C          62.7305   90.0225   10.2911 C.ar    1  UNL1        0.0076
      4 C          62.7560   89.1745   11.5281 C.ar    1  UNL1        0.0536
      5 C          63.5135   89.6354   12.7379 C.ar    1  UNL1        0.0076
      6 C          64.2456   90.9444   12.7107 C.ar    1  UNL1        0.0376
      7 C          62.0240   87.8655   11.5553 C.2     1  UNL1        0.2461
      8 O          60.5357   87.8345   11.3706 O.2     1  UNL1       -0.2701
      9 N          62.7803   86.5875   11.7673 N.am    1  UNL1       -0.2956
     10 H          63.7571   86.6079   11.8885 H       1  UNL1        0.1501
     11 C          62.0483   85.2786   11.7945 C.3     1  UNL1        0.1361
     12 C          62.4894   84.1920   12.7297 C.ar    1  UNL1        0.0821
     13 C          62.9324   82.8669   12.1841 C.ar    1  UNL1        0.0371
     14 C          63.3735   81.7802   13.1194 C.ar    1  UNL1        0.1019
     15 N          63.3716   82.0187   14.6002 N.ar    1  UNL1       -0.2224
     16 C          62.9285   83.3439   15.1459 C.ar    1  UNL1        0.1986
     17 N          62.4874   84.4305   14.2107 N.ar    1  UNL1       -0.2266
     18 O          64.9520   93.1014   11.4465 O.3     1  UNL1       -0.4528
     19 C          66.5331   94.5355    9.9653 C.ar    1  UNL1        0.1029
     20 C          67.7954   94.6724    9.1667 C.ar    1  UNL1        0.0134
     21 C          68.7390   93.5121    9.0507 C.ar    1  UNL1        0.0009
     22 C          68.4203   92.2150    9.7332 C.ar    1  UNL1        0.0032
     23 C          67.1580   92.0781   10.5318 C.ar    1  UNL1        0.0382
     24 C          66.2144   93.2384   10.6479 C.ar    1  UNL1        0.1548
     25 N          64.6458   96.8559   10.1975 N.1     1  UNL1       -0.1907
     26 C          65.5895   95.6957   10.0814 C.1     1  UNL1        0.1035
@<TRIPOS>BOND
     1    25    26    3
     2    26    19    1
     3    19    20   ar
     4    20    21   ar
     5    21    22   ar
     6    22    23   ar
     7    23    24   ar
     8    24    18    1
     9    18     1    1
    10     1     2   ar
    11     2     3   ar
    12     3     4   ar
    13     4     7    1
    14     7     8    2
    15     7     9   am
    16     9    11    1
    17    11    12    1
    18    12    13   ar
    19    13    14   ar
    20    14    15   ar
    21    15    16   ar
    22    16    17   ar
    23     4     5   ar
    24     5     6   ar
    25    24    19   ar
    26     6     1   ar
    27    17    12   ar
    28     9    10    1
@<TRIPOS>MOLECULE
*****
 26 28 0 0 0
SMALL
GASTEIGER

@<TRIPOS>ATOM
      1 C          62.5415   87.6317   12.0858 C.ar    1  UNL1        0.1453
      2 C          62.3270   88.8450   11.2302 C.ar    1  UNL1        0.0376
      3 C          63.0243   90.1306   11.5636 C.ar    1  UNL1        0.0076
      4 C          63.9361   90.2029   12.7524 C.ar    1  UNL1        0.0536
      5 C          64.1506   88.9896   13.6079 C.ar    1  UNL1        0.0076
      6 C          63.4533   87.7040   13.2746 C.ar    1  UNL1        0.0376
      7 C          64.6334   91.4884   13.0858 C.2     1  UNL1        0.2461
      8 O          64.6509   91.9872   14.5003 O.2     1  UNL1       -0.2701
      9 N          65.3132   92.2752   12.0045 N.am    1  UNL1       -0.2956
     10 H          65.3017   91.9478   11.0762 H       1  UNL1        0.1501
     11 C          66.0105   93.5607   12.3379 C.3     1  UNL1        0.1361
     12 C          66.4781   94.4672   11.2382 C.ar    1  UNL1        0.0821
     13 C          66.0853   95.9149   11.2415 C.ar    1  UNL1        0.0371
     14 C          66.5530   96.8214   10.1417 C.ar    1  UNL1        0.1019
     15 N          67.4135   96.2803    9.0387 N.ar    1  UNL1       -0.2224
     16 C          67.8064   94.8327    9.0354 C.ar    1  UNL1        0.1986
     17 N          67.3387   93.9261   10.1351 N.ar    1  UNL1       -0.2266
     18 O          61.8443   86.3462   11.7524 O.3     1  UNL1       -0.4528
     19 C          63.0574   84.1524   12.4348 C.ar    1  UNL1        0.1029
     20 C          63.8578   82.9402   12.0606 C.ar    1  UNL1        0.0134
     21 C          64.2453   82.7095   10.6300 C.ar    1  UNL1        0.0009
     22 C          63.8325   83.6911    9.5736 C.ar    1  UNL1        0.0032
     23 C          63.0322   84.9032    9.9477 C.ar    1  UNL1        0.0382
     24 C          62.6446   85.1339   11.3783 C.ar    1  UNL1        0.1548
     25 N          62.2823   84.6137   15.2960 N.1     1  UNL1       -0.1907
     26 C          62.6699   84.3830   13.8654 C.1     1  UNL1        0.1035
@<TRIPOS>BOND
     1    25    26    3
     2    26    19    1
     3    19    20   ar
     4    20    21   ar
     5    21    22   ar
     6    22    23   ar
     7    23    24   ar
     8    24    18    1
     9    18     1    1
    10     1     2   ar
    11     2     3   ar
    12     3     4   ar
    13     4     7    1
    14     7     8    2
    15     7     9   am
    16     9    11    1
    17    11    12    1
    18    12    13   ar
    19    13    14   ar
    20    14    15   ar
    21    15    16   ar
    22    16    17   ar
    23     4     5   ar
    24     5     6   ar
    25    24    19   ar
    26     6     1   ar
    27    17    12   ar
    28     9    10    1
@<TRIPOS>MOLECULE
*****
 26 28 0 0 0
SMALL
GASTEIGER

@<TRIPOS>ATOM
      1 C          64.0676   91.0390   12.7893 C.ar    1  UNL1        0.1453
      2 C          64.2495   89.8193   13.6434 C.ar    1  UNL1        0.0376
      3 C          63.6793   88.5036   13.2032 C.ar    1  UNL1        0.0076
      4 C          62.9272   88.4075   11.9089 C.ar    1  UNL1        0.0536
      5 C          62.7453   89.6271   11.0548 C.ar    1  UNL1        0.0076
      6 C          63.3155   90.9429   11.4950 C.ar    1  UNL1        0.0376
      7 C          62.3571   87.0919   11.4687 C.2     1  UNL1        0.2461
      8 O          61.1278   87.0569   10.6098 O.2     1  UNL1       -0.2701
      9 N          63.0161   85.8110   11.8874 N.am    1  UNL1       -0.2956
     10 H          63.8229   85.8340   12.4512 H       1  UNL1        0.1501
     11 C          62.4460   84.4954   11.4472 C.3     1  UNL1        0.1361
     12 C          62.5733   83.2897   12.3304 C.ar    1  UNL1        0.0821
     13 C          62.8060   81.9374   11.7245 C.ar    1  UNL1        0.0371
     14 C          62.9334   80.7317   12.6078 C.ar    1  UNL1        0.1019
     15 N          62.8279   80.8783   14.0969 N.ar    1  UNL1       -0.2224
     16 C          62.5951   82.2306   14.7027 C.ar    1  UNL1        0.1986
     17 N          62.4678   83.4363   13.8195 N.ar    1  UNL1       -0.2266
     18 O          64.6377   92.3547   13.2295 O.3     1  UNL1       -0.4528
     19 C          67.2332   92.3733   13.3454 C.ar    1  UNL1        0.1029
     20 C          68.4972   92.4107   14.1521 C.ar    1  UNL1        0.0134
     21 C          68.4300   92.4667   15.6495 C.ar    1  UNL1        0.0009
     22 C          67.0987   92.4855   16.3403 C.ar    1  UNL1        0.0032
     23 C          65.8346   92.4481   15.5336 C.ar    1  UNL1        0.0382
     24 C          65.9019   92.3920   14.0362 C.ar    1  UNL1        0.1548
     25 N          67.3677   92.2611   10.3505 N.1     1  UNL1       -0.1907
     26 C          67.3005   92.3172   11.8480 C.1     1  UNL1        0.1035
@<TRIPOS>BOND
     1    25    26    3
     2    26    19    1
     3    19    20   ar
     4    20    21   ar
     5    21    22   ar
     6    22    23   ar
     7    23    24   ar
     8    24    18    1
     9    18     1    1
    10     1     2   ar
    11     2     3   ar
    12     3     4   ar
    13     4     7    1
    14     7     8    2
    15     7     9   am
    16     9    11    1
    17    11    12    1
    18    12    13   ar
    19    13    14   ar
    20    14    15   ar
    21    15    16   ar
    22    16    17   ar
    23     4     5   ar
    24     5     6   ar
    25    24    19   ar
    26     6     1   ar
    27    17    12   ar
    28     9    10    1
@<TRIPOS>MOLECULE
*****
 26 28 0 0 0
SMALL
GASTEIGER

@<TRIPOS>ATOM
      1 C          62.6912   87.3713   12.1345 C.ar    1  UNL1        0.1453
      2 C          62.4653   88.5665   11.2566 C.ar    1  UNL1        0.0376
      3 C          63.0969   89.8820   11.6036 C.ar    1  UNL1        0.0076
      4 C          63.9544   90.0024   12.8284 C.ar    1  UNL1        0.0536
      5 C          64.1803   88.8074   13.7062 C.ar    1  UNL1        0.0076
      6 C          63.5487   87.4917   13.3593 C.ar    1  UNL1        0.0376
      7 C          64.5860   91.3180   13.1753 C.2     1  UNL1        0.2461
      8 O          64.5716   91.8060   14.5936 O.2     1  UNL1       -0.2701
      9 N          65.2321   92.1455   12.1039 N.am    1  UNL1       -0.2956
     10 H          65.2416   91.8252   11.1730 H       1  UNL1        0.1501
     11 C          65.8637   93.4611   12.4508 C.3     1  UNL1        0.1361
     12 C          66.4113   94.3395   11.3653 C.ar    1  UNL1        0.0821
     13 C          66.1035   95.8076   11.3617 C.ar    1  UNL1        0.0371
     14 C          66.6512   96.6861   10.2761 C.ar    1  UNL1        0.1019
     15 N          67.5065   96.0964    9.1941 N.ar    1  UNL1       -0.2224
     16 C          67.8142   94.6284    9.1977 C.ar    1  UNL1        0.1986
     17 N          67.2666   93.7499   10.2832 N.ar    1  UNL1       -0.2266
     18 O          62.0596   86.0558   11.7876 O.3     1  UNL1       -0.4528
     19 C          63.4077   84.1278   10.6849 C.ar    1  UNL1        0.1029
     20 C          64.1993   82.8599   10.8091 C.ar    1  UNL1        0.0134
     21 C          64.4347   82.2518   12.1600 C.ar    1  UNL1        0.0009
     22 C          63.8783   82.9117   13.3867 C.ar    1  UNL1        0.0032
     23 C          63.0867   84.1797   13.2626 C.ar    1  UNL1        0.0382
     24 C          62.8513   84.7877   11.9117 C.ar    1  UNL1        0.1548
     25 N          62.9370   85.3440    7.9832 N.1     1  UNL1       -0.1907
     26 C          63.1723   84.7359    9.3341 C.1     1  UNL1        0.1035
@<TRIPOS>BOND
     1    25    26    3
     2    26    19    1
     3    19    20   ar
     4    20    21   ar
     5    21    22   ar
     6    22    23   ar
     7    23    24   ar
     8    24    18    1
     9    18     1    1
    10     1     2   ar
    11     2     3   ar
    12     3     4   ar
    13     4     7    1
    14     7     8    2
    15     7     9   am
    16     9    11    1
    17    11    12    1
    18    12    13   ar
    19    13    14   ar
    20    14    15   ar
    21    15    16   ar
    22    16    17   ar
    23     4     5   ar
    24     5     6   ar
    25    24    19   ar
    26     6     1   ar
    27    17    12   ar
    28     9    10    1
@<TRIPOS>MOLECULE
*****
 26 28 0 0 0
SMALL
GASTEIGER

@<TRIPOS>ATOM
      1 C          61.8784   87.9246   10.9341 C.ar    1  UNL1        0.1453
      2 C          62.6970   87.7902   12.1839 C.ar    1  UNL1        0.0376
      3 C          63.4880   88.9591   12.6917 C.ar    1  UNL1        0.0076
      4 C          63.4605   90.2625   11.9498 C.ar    1  UNL1        0.0536
      5 C          62.6420   90.3969   10.7001 C.ar    1  UNL1        0.0076
      6 C          61.8509   89.2280   10.1921 C.ar    1  UNL1        0.0376
      7 C          64.2514   91.4314   12.4577 C.2     1  UNL1        0.2461
      8 O          64.2309   91.7732   13.9181 O.2     1  UNL1       -0.2701
      9 N          65.0630   92.2586   11.5051 N.am    1  UNL1       -0.2956
     10 H          65.0764   92.0342   10.5466 H       1  UNL1        0.1501
     11 C          65.8539   93.4275   12.0129 C.3     1  UNL1        0.1361
     12 C          66.4271   94.4216   11.0470 C.ar    1  UNL1        0.0821
     13 C          66.0136   95.8617   11.1191 C.ar    1  UNL1        0.0371
     14 C          66.5868   96.8559   10.1531 C.ar    1  UNL1        0.1019
     15 N          67.5735   96.4100    9.1151 N.ar    1  UNL1       -0.2224
     16 C          67.9870   94.9699    9.0430 C.ar    1  UNL1        0.1986
     17 N          67.4138   93.9757   10.0089 N.ar    1  UNL1       -0.2266
     18 O          61.0875   86.7557   10.4262 O.3     1  UNL1       -0.4528
     19 C          60.7788   86.0646    7.9408 C.ar    1  UNL1        0.1029
     20 C          61.2502   85.3072    6.7350 C.ar    1  UNL1        0.0134
     21 C          62.5015   84.4833    6.8087 C.ar    1  UNL1        0.0009
     22 C          63.2815   84.4169    8.0882 C.ar    1  UNL1        0.0032
     23 C          62.8101   85.1743    9.2940 C.ar    1  UNL1        0.0382
     24 C          61.5588   85.9982    9.2203 C.ar    1  UNL1        0.1548
     25 N          58.2762   87.7124    7.7934 N.1     1  UNL1       -0.1907
     26 C          59.5275   86.8885    7.8671 C.1     1  UNL1        0.1035
@<TRIPOS>BOND
     1    25    26    3
     2    26    19    1
     3    19    20   ar
     4    20    21   ar
     5    21    22   ar
     6    22    23   ar
     7    23    24   ar
     8    24    18    1
     9    18     1    1
    10     1     2   ar
    11     2     3   ar
    12     3     4   ar
    13     4     7    1
    14     7     8    2
    15     7     9   am
    16     9    11    1
    17    11    12    1
    18    12    13   ar
    19    13    14   ar
    20    14    15   ar
    21    15    16   ar
    22    16    17   ar
    23     4     5   ar
    24     5     6   ar
    25    24    19   ar
    26     6     1   ar
    27    17    12   ar
    28     9    10    1
@<TRIPOS>MOLECULE
*****
 26 28 0 0 0
SMALL
GASTEIGER

@<TRIPOS>ATOM
      1 C          64.2962   91.2088   12.7904 C.ar    1  UNL1        0.1453
      2 C          64.3895   89.9953   13.6672 C.ar    1  UNL1        0.0376
      3 C          63.7563   88.7064   13.2339 C.ar    1  UNL1        0.0076
      4 C          63.0299   88.6309   11.9236 C.ar    1  UNL1        0.0536
      5 C          62.9367   89.8443   11.0468 C.ar    1  UNL1        0.0076
      6 C          63.5698   91.1333   11.4802 C.ar    1  UNL1        0.0376
      7 C          62.3968   87.3420   11.4903 C.2     1  UNL1        0.2461
      8 O          61.2754   87.3550   10.4941 O.2     1  UNL1       -0.2701
      9 N          62.8851   86.0401   12.0530 N.am    1  UNL1       -0.2956
     10 H          63.6211   86.0316   12.7068 H       1  UNL1        0.1501
     11 C          62.2519   84.7512   11.6197 C.3     1  UNL1        0.1361
     12 C          62.5267   83.4878   12.3800 C.ar    1  UNL1        0.0821
     13 C          62.6668   83.5263   13.8730 C.ar    1  UNL1        0.0371
     14 C          62.9416   82.2628   14.6334 C.ar    1  UNL1        0.1019
     15 N          63.0763   80.9608   13.9008 N.ar    1  UNL1       -0.2224
     16 C          62.9362   80.9223   12.4078 C.ar    1  UNL1        0.1986
     17 N          62.6614   82.1857   11.6475 N.ar    1  UNL1       -0.2266
     18 O          64.9293   92.4977   13.2238 O.3     1  UNL1       -0.4528
     19 C          66.1174   92.4508   15.5338 C.ar    1  UNL1        0.1029
     20 C          67.3784   92.4312   16.3459 C.ar    1  UNL1        0.0134
     21 C          68.7124   92.4387   15.6600 C.ar    1  UNL1        0.0009
     22 C          68.7853   92.4659   14.1620 C.ar    1  UNL1        0.0032
     23 C          67.5243   92.4856   13.3500 C.ar    1  UNL1        0.0382
     24 C          66.1904   92.4780   14.0359 C.ar    1  UNL1        0.1548
     25 N          63.4495   92.4357   16.9057 N.1     1  UNL1       -0.1907
     26 C          64.7834   92.4432   16.2198 C.1     1  UNL1        0.1035
@<TRIPOS>BOND
     1    25    26    3
     2    26    19    1
     3    19    20   ar
     4    20    21   ar
     5    21    22   ar
     6    22    23   ar
     7    23    24   ar
     8    24    18    1
     9    18     1    1
    10     1     2   ar
    11     2     3   ar
    12     3     4   ar
    13     4     7    1
    14     7     8    2
    15     7     9   am
    16     9    11    1
    17    11    12    1
    18    12    13   ar
    19    13    14   ar
    20    14    15   ar
    21    15    16   ar
    22    16    17   ar
    23     4     5   ar
    24     5     6   ar
    25    24    19   ar
    26     6     1   ar
    27    17    12   ar
    28     9    10    1
@<TRIPOS>MOLECULE
*****
 26 28 0 0 0
SMALL
GASTEIGER

@<TRIPOS>ATOM
      1 C          61.7987   88.0184   10.9531 C.ar    1  UNL1        0.1453
      2 C          62.7115   87.7959   12.1225 C.ar    1  UNL1        0.0376
      3 C          63.5145   88.9361   12.6747 C.ar    1  UNL1        0.0076
      4 C          63.4048   90.2989   12.0578 C.ar    1  UNL1        0.0536
      5 C          62.4920   90.5215   10.8885 C.ar    1  UNL1        0.0076
      6 C          61.6890   89.3813   10.3361 C.ar    1  UNL1        0.0376
      7 C          64.2078   91.4391   12.6100 C.2     1  UNL1        0.2461
      8 O          64.1344   91.7696   14.0713 O.2     1  UNL1       -0.2701
      9 N          65.0842   92.2489   11.7010 N.am    1  UNL1       -0.2956
     10 H          65.1324   92.0319   10.7419 H       1  UNL1        0.1501
     11 C          65.8872   93.3891   12.2533 C.3     1  UNL1        0.1361
     12 C          66.9246   93.1349   13.3065 C.ar    1  UNL1        0.0821
     13 C          66.8399   93.8393   14.6281 C.ar    1  UNL1        0.0371
     14 C          67.8774   93.5851   15.6813 C.ar    1  UNL1        0.1019
     15 N          68.9995   92.6266   15.4128 N.ar    1  UNL1       -0.2224
     16 C          69.0842   91.9222   14.0912 C.ar    1  UNL1        0.1986
     17 N          68.0468   92.1764   13.0381 N.ar    1  UNL1       -0.2266
     18 O          60.9957   86.8782   10.4008 O.3     1  UNL1       -0.4528
     19 C          60.7919   86.0742    7.9387 C.ar    1  UNL1        0.1029
     20 C          61.3206   85.2738    6.7855 C.ar    1  UNL1        0.0134
     21 C          62.5819   84.4770    6.9413 C.ar    1  UNL1        0.0009
     22 C          63.3144   84.4806    8.2502 C.ar    1  UNL1        0.0032
     23 C          62.7857   85.2810    9.4034 C.ar    1  UNL1        0.0382
     24 C          61.5245   86.0778    9.2476 C.ar    1  UNL1        0.1548
     25 N          58.2694   87.6679    7.6271 N.1     1  UNL1       -0.1907
     26 C          59.5306   86.8711    7.7829 C.1     1  UNL1        0.1035
@<TRIPOS>BOND
     1    25    26    3
     2    26    19    1
     3    19    20   ar
     4    20    21   ar
     5    21    22   ar
     6    22    23   ar
     7    23    24   ar
     8    24    18    1
     9    18     1    1
    10     1     2   ar
    11     2     3   ar
    12     3     4   ar
    13     4     7    1
    14     7     8    2
    15     7     9   am
    16     9    11    1
    17    11    12    1
    18    12    13   ar
    19    13    14   ar
    20    14    15   ar
    21    15    16   ar
    22    16    17   ar
    23     4     5   ar
    24     5     6   ar
    25    24    19   ar
    26     6     1   ar
    27    17    12   ar
    28     9    10    1
