@<TRIPOS>MOLECULE
*****
 31 34 0 0 0
SMALL
GASTEIGER

@<TRIPOS>ATOM
      1 C          63.7750   91.1319   11.9243 C.ar    1  UNL1        0.1311
      2 C          63.8977   89.9232   12.8040 C.ar    1  UNL1        0.0339
      3 C          63.1445   88.6707   12.4667 C.ar    1  UNL1        0.0027
      4 C          62.2686   88.6268   11.2498 C.ar    1  UNL1        0.0283
      5 C          62.1459   89.8356   10.3701 C.ar    1  UNL1        0.2196
      6 F          61.2700   89.7918    9.1532 F       1  UNL1       -0.1835
      7 N          62.8991   91.0881   10.7074 N.ar    1  UNL1       -0.2035
      8 N          64.5282   92.3845   12.2615 N.pl3   1  UNL1       -0.3143
      9 H          64.0380   93.2097   12.4806 H       1  UNL1        0.1485
     10 C          66.0282   92.3799   12.2649 C.3     1  UNL1        0.1201
     11 C          66.7178   94.5004   10.9315 C.ar    1  UNL1        0.2225
     12 N          67.4723   95.1362    9.8017 N.ar    1  UNL1       -0.2080
     13 C          68.2918   94.2872    8.8755 C.ar    1  UNL1        0.1316
     14 C          68.3566   92.8025    9.0791 C.ar    1  UNL1        0.1592
     15 F          69.1761   91.9536    8.1528 F       1  UNL1       -0.2025
     16 C          67.6021   92.1668   10.2089 C.ar    1  UNL1        0.0333
     17 C          66.7827   93.0157   11.1351 C.ar    1  UNL1        0.0529
     18 C          65.9415   96.8441   11.7405 C.3     1  UNL1        0.2542
     19 O          65.8984   95.3494   11.8577 O.3     1  UNL1       -0.4563
     20 C          61.5154   87.3742   10.9125 C.3     1  UNL1        0.0582
     21 C          62.2215   86.2309   10.2461 C.ar    1  UNL1        0.0044
     22 C          62.3918   86.0410    8.7679 C.ar    1  UNL1        0.0966
     23 N          63.1568   84.7695    8.5491 N.ar    1  UNL1       -0.2273
     24 C          63.4594   84.1735    9.8920 C.ar    1  UNL1        0.1402
     25 N          64.1866   82.9252   10.2952 N.ar    1  UNL1       -0.3377
     26 C          64.3358   82.5800   11.7473 C.ar    1  UNL1        0.0691
     27 C          63.7577   83.4832   12.7961 C.ar    1  UNL1       -0.0047
     28 C          63.9069   83.1380   14.2483 C.3     1  UNL1        0.0326
     29 C          63.0305   84.7316   12.3928 C.ar    1  UNL1       -0.0001
     30 C          62.8813   85.0768   10.9408 C.ar    1  UNL1        0.0315
     31 H          64.5661   82.3324    9.6068 H       1  UNL1        0.1674
@<TRIPOS>BOND
     1    18    19    1
     2    19    11    1
     3    11    12   ar
     4    12    13   ar
     5    13    14   ar
     6    14    15    1
     7    14    16   ar
     8    16    17   ar
     9    17    10    1
    10    10     8    1
    11     8     1    1
    12     1     2   ar
    13     2     3   ar
    14     3     4   ar
    15     4    20    1
    16    20    21    1
    17    21    22   ar
    18    22    23   ar
    19    23    24   ar
    20    24    25   ar
    21    25    26   ar
    22    26    27   ar
    23    27    28    1
    24    27    29   ar
    25    29    30   ar
    26     4     5   ar
    27     5     6    1
    28     5     7   ar
    29    17    11   ar
    30     7     1   ar
    31    30    21   ar
    32    30    24    1
    33     8     9    1
    34    25    31    1
@<TRIPOS>MOLECULE
*****
 31 34 0 0 0
SMALL
GASTEIGER

@<TRIPOS>ATOM
      1 C          64.0840   85.3759   15.4546 C.ar    1  UNL1        0.1311
      2 C          64.4458   86.2715   14.3071 C.ar    1  UNL1        0.0339
      3 C          64.2550   87.7547   14.4242 C.ar    1  UNL1        0.0027
      4 C          63.7024   88.3423   15.6889 C.ar    1  UNL1        0.0283
      5 C          63.3405   87.4466   16.8364 C.ar    1  UNL1        0.2196
      6 F          62.7879   88.0342   18.1011 F       1  UNL1       -0.1835
      7 N          63.5313   85.9635   16.7193 N.ar    1  UNL1       -0.2035
      8 N          64.2748   83.8927   15.3376 N.pl3   1  UNL1       -0.3143
      9 H          65.1196   83.4805   15.6300 H       1  UNL1        0.1485
     10 C          63.1783   83.0375   14.7750 C.3     1  UNL1        0.1201
     11 C          62.6227   81.2238   12.9997 C.ar    1  UNL1        0.2225
     12 N          62.7192   80.7094   11.5940 N.ar    1  UNL1       -0.2080
     13 C          63.4678   81.4944   10.5578 C.ar    1  UNL1        0.1316
     14 C          64.1199   82.7936   10.9275 C.ar    1  UNL1        0.1592
     15 F          64.8684   83.5785    9.8913 F       1  UNL1       -0.2025
     16 C          64.0234   83.3080   12.3332 C.ar    1  UNL1        0.0333
     17 C          63.2748   82.5231   13.3693 C.ar    1  UNL1        0.0529
     18 C          60.3902   80.6063   14.1764 C.3     1  UNL1        0.2542
     19 O          61.8741   80.4388   14.0358 O.3     1  UNL1       -0.4563
     20 C          63.5116   89.8255   15.8060 C.3     1  UNL1        0.0582
     21 C          64.2469   90.7515   14.8830 C.ar    1  UNL1        0.0044
     22 C          65.3644   91.6753   15.2672 C.ar    1  UNL1        0.0966
     23 N          65.8020   92.4109   14.0354 N.ar    1  UNL1       -0.2273
     24 C          64.9549   91.9417   12.8898 C.ar    1  UNL1        0.1402
     25 N          64.9345   92.3159   11.4374 N.ar    1  UNL1       -0.3377
     26 C          63.9530   91.6644   10.5088 C.ar    1  UNL1        0.0691
     27 C          62.9919   90.6388   11.0327 C.ar    1  UNL1       -0.0047
     28 C          62.0104   89.9874   10.1040 C.3     1  UNL1        0.0326
     29 C          63.0123   90.2647   12.4851 C.ar    1  UNL1       -0.0001
     30 C          63.9937   90.9161   13.4137 C.ar    1  UNL1        0.0315
     31 H          65.5653   92.9890   11.0936 H       1  UNL1        0.1674
@<TRIPOS>BOND
     1    18    19    1
     2    19    11    1
     3    11    12   ar
     4    12    13   ar
     5    13    14   ar
     6    14    15    1
     7    14    16   ar
     8    16    17   ar
     9    17    10    1
    10    10     8    1
    11     8     1    1
    12     1     2   ar
    13     2     3   ar
    14     3     4   ar
    15     4    20    1
    16    20    21    1
    17    21    22   ar
    18    22    23   ar
    19    23    24   ar
    20    24    25   ar
    21    25    26   ar
    22    26    27   ar
    23    27    28    1
    24    27    29   ar
    25    29    30   ar
    26     4     5   ar
    27     5     6    1
    28     5     7   ar
    29    17    11   ar
    30     7     1   ar
    31    30    21   ar
    32    30    24    1
    33     8     9    1
    34    25    31    1
@<TRIPOS>MOLECULE
*****
 31 34 0 0 0
SMALL
GASTEIGER

@<TRIPOS>ATOM
      1 C          62.3552   86.4390   11.2110 C.ar    1  UNL1        0.1311
      2 C          61.7081   87.4261   10.2854 C.ar    1  UNL1        0.0339
      3 C          61.8341   88.8970   10.5508 C.ar    1  UNL1        0.0027
      4 C          62.6072   89.3808   11.7416 C.ar    1  UNL1        0.0283
      5 C          63.2544   88.3937   12.6672 C.ar    1  UNL1        0.2196
      6 F          64.0275   88.8775   13.8581 F       1  UNL1       -0.1835
      7 N          63.1283   86.9228   12.4019 N.ar    1  UNL1       -0.2035
      8 N          62.2293   84.9680   10.9458 N.pl3   1  UNL1       -0.3143
      9 H          61.4348   84.6178   10.4817 H       1  UNL1        0.1485
     10 C          63.3138   84.0306   11.3875 C.3     1  UNL1        0.1201
     11 C          62.6165   82.9379   13.6392 C.ar    1  UNL1        0.2225
     12 N          62.2722   81.7162   14.4386 N.ar    1  UNL1       -0.2080
     13 C          62.2810   80.3657   13.7858 C.ar    1  UNL1        0.1316
     14 C          62.6341   80.2368   12.3337 C.ar    1  UNL1        0.1592
     15 F          62.6428   78.8863   11.6810 F       1  UNL1       -0.2025
     16 C          62.9783   81.4585   11.5343 C.ar    1  UNL1        0.0333
     17 C          62.9695   82.8090   12.1870 C.ar    1  UNL1        0.0529
     18 C          63.7184   84.6797   15.2209 C.3     1  UNL1        0.2542
     19 O          62.6077   84.2884   14.2919 O.3     1  UNL1       -0.4563
     20 C          62.7332   90.8519   12.0069 C.3     1  UNL1        0.0582
     21 C          64.0214   91.5601   11.7087 C.ar    1  UNL1        0.0044
     22 C          64.5314   91.9263   10.3464 C.ar    1  UNL1        0.0966
     23 N          65.8510   92.6190   10.5163 N.ar    1  UNL1       -0.2273
     24 C          66.1565   92.6810   11.9836 C.ar    1  UNL1        0.1402
     25 N          67.3183   93.2487   12.7437 N.ar    1  UNL1       -0.3377
     26 C          67.3493   93.1621   14.2409 C.ar    1  UNL1        0.0691
     27 C          66.2186   92.5076   14.9778 C.ar    1  UNL1       -0.0047
     28 C          66.2496   92.4210   16.4751 C.3     1  UNL1        0.0326
     29 C          65.0568   91.9399   14.2177 C.ar    1  UNL1       -0.0001
     30 C          65.0258   92.0265   12.7205 C.ar    1  UNL1        0.0315
     31 H          68.0604   93.6783   12.2600 H       1  UNL1        0.1674
@<TRIPOS>BOND
     1    18    19    1
     2    19    11    1
     3    11    12   ar
     4    12    13   ar
     5    13    14   ar
     6    14    15    1
     7    14    16   ar
     8    16    17   ar
     9    17    10    1
    10    10     8    1
    11     8     1    1
    12     1     2   ar
    13     2     3   ar
    14     3     4   ar
    15     4    20    1
    16    20    21    1
    17    21    22   ar
    18    22    23   ar
    19    23    24   ar
    20    24    25   ar
    21    25    26   ar
    22    26    27   ar
    23    27    28    1
    24    27    29   ar
    25    29    30   ar
    26     4     5   ar
    27     5     6    1
    28     5     7   ar
    29    17    11   ar
    30     7     1   ar
    31    30    21   ar
    32    30    24    1
    33     8     9    1
    34    25    31    1
@<TRIPOS>MOLECULE
*****
 31 34 0 0 0
SMALL
GASTEIGER

@<TRIPOS>ATOM
      1 C          62.0614   89.4661   11.2886 C.ar    1  UNL1        0.1311
      2 C          62.5896   90.5477   10.3936 C.ar    1  UNL1        0.0339
      3 C          63.7161   91.4222   10.8585 C.ar    1  UNL1        0.0027
      4 C          64.3145   91.2151   12.2183 C.ar    1  UNL1        0.0283
      5 C          63.7863   90.1334   13.1133 C.ar    1  UNL1        0.2196
      6 F          64.3846   89.9263   14.4731 F       1  UNL1       -0.1835
      7 N          62.6597   89.2590   12.6484 N.ar    1  UNL1       -0.2035
      8 N          60.9348   88.5915   10.8239 N.pl3   1  UNL1       -0.3143
      9 H          60.2540   88.9506   10.2100 H       1  UNL1        0.1485
     10 C          60.8455   87.1700   11.2944 C.3     1  UNL1        0.1201
     11 C          62.4623   85.1650   11.6348 C.ar    1  UNL1        0.2225
     12 N          63.3825   84.1270   11.0642 N.ar    1  UNL1       -0.2080
     13 C          63.6063   84.0559    9.5827 C.ar    1  UNL1        0.1316
     14 C          62.9097   85.0228    8.6718 C.ar    1  UNL1        0.1592
     15 F          63.1335   84.9517    7.1902 F       1  UNL1       -0.2025
     16 C          61.9895   86.0609    9.2423 C.ar    1  UNL1        0.0333
     17 C          61.7657   86.1320   10.7239 C.ar    1  UNL1        0.0529
     18 C          62.9469   84.2791   14.0286 C.3     1  UNL1        0.2542
     19 O          62.2386   85.2361   13.1163 O.3     1  UNL1       -0.4563
     20 C          65.4411   92.0896   12.6831 C.3     1  UNL1        0.0582
     21 C          66.5363   92.4708   11.7317 C.ar    1  UNL1        0.0044
     22 C          67.8355   91.7443   11.5460 C.ar    1  UNL1        0.0966
     23 N          68.6267   92.4700   10.4984 N.ar    1  UNL1       -0.2273
     24 C          67.8166   93.6450   10.0367 C.ar    1  UNL1        0.1402
     25 N          68.0884   94.7145    9.0207 N.ar    1  UNL1       -0.3377
     26 C          67.0683   95.7845    8.7669 C.ar    1  UNL1        0.0691
     27 C          65.7764   95.7850    9.5291 C.ar    1  UNL1       -0.0047
     28 C          64.7563   96.8551    9.2753 C.3     1  UNL1        0.0326
     29 C          65.5046   94.7155   10.5451 C.ar    1  UNL1       -0.0001
     30 C          66.5247   93.6455   10.7989 C.ar    1  UNL1        0.0315
     31 H          68.9364   94.7141    8.5205 H       1  UNL1        0.1674
@<TRIPOS>BOND
     1    18    19    1
     2    19    11    1
     3    11    12   ar
     4    12    13   ar
     5    13    14   ar
     6    14    15    1
     7    14    16   ar
     8    16    17   ar
     9    17    10    1
    10    10     8    1
    11     8     1    1
    12     1     2   ar
    13     2     3   ar
    14     3     4   ar
    15     4    20    1
    16    20    21    1
    17    21    22   ar
    18    22    23   ar
    19    23    24   ar
    20    24    25   ar
    21    25    26   ar
    22    26    27   ar
    23    27    28    1
    24    27    29   ar
    25    29    30   ar
    26     4     5   ar
    27     5     6    1
    28     5     7   ar
    29    17    11   ar
    30     7     1   ar
    31    30    21   ar
    32    30    24    1
    33     8     9    1
    34    25    31    1
@<TRIPOS>MOLECULE
*****
 31 34 0 0 0
SMALL
GASTEIGER

@<TRIPOS>ATOM
      1 C          62.0764   86.4847   10.9865 C.ar    1  UNL1        0.1311
      2 C          62.9276   87.1804   12.0071 C.ar    1  UNL1        0.0339
      3 C          63.1277   88.6650   11.9303 C.ar    1  UNL1        0.0027
      4 C          62.4768   89.4539   10.8331 C.ar    1  UNL1        0.0283
      5 C          61.6256   88.7582    9.8125 C.ar    1  UNL1        0.2196
      6 F          60.9747   89.5471    8.7153 F       1  UNL1       -0.1835
      7 N          61.4255   87.2736    9.8893 N.ar    1  UNL1       -0.2035
      8 N          61.8762   85.0001   11.0631 N.pl3   1  UNL1       -0.3143
      9 H          60.9786   84.6171   10.9331 H       1  UNL1        0.1485
     10 C          63.0435   84.0990   11.3378 C.3     1  UNL1        0.1201
     11 C          62.6707   82.9904   13.6577 C.ar    1  UNL1        0.2225
     12 N          62.4871   81.7592   14.4946 N.ar    1  UNL1       -0.2080
     13 C          62.4928   80.4054   13.8485 C.ar    1  UNL1        0.1316
     14 C          62.6821   80.2829   12.3656 C.ar    1  UNL1        0.1592
     15 F          62.6878   78.9291   11.7196 F       1  UNL1       -0.2025
     16 C          62.8657   81.5141   11.5287 C.ar    1  UNL1        0.0333
     17 C          62.8600   82.8679   12.1748 C.ar    1  UNL1        0.0529
     18 C          63.9164   84.8798   14.9337 C.3     1  UNL1        0.2542
     19 O          62.6650   84.3441   14.3038 O.3     1  UNL1       -0.4563
     20 C          62.6770   90.9385   10.7564 C.3     1  UNL1        0.0582
     21 C          63.9069   91.5610   11.3479 C.ar    1  UNL1        0.0044
     22 C          64.9678   92.3063   10.5935 C.ar    1  UNL1        0.0966
     23 N          66.0084   92.7533   11.5770 N.ar    1  UNL1       -0.2273
     24 C          65.5906   92.2844   12.9392 C.ar    1  UNL1        0.1402
     25 N          66.2251   92.4331   14.2902 N.ar    1  UNL1       -0.3377
     26 C          65.5608   91.8450   15.4996 C.ar    1  UNL1        0.0691
     27 C          64.2620   91.1081   15.3580 C.ar    1  UNL1       -0.0047
     28 C          63.5976   90.5199   16.5675 C.3     1  UNL1        0.0326
     29 C          63.6275   90.9593   14.0070 C.ar    1  UNL1       -0.0001
     30 C          64.2918   91.5474   12.7976 C.ar    1  UNL1        0.0315
     31 H          67.0776   92.9168   14.3832 H       1  UNL1        0.1674
@<TRIPOS>BOND
     1    18    19    1
     2    19    11    1
     3    11    12   ar
     4    12    13   ar
     5    13    14   ar
     6    14    15    1
     7    14    16   ar
     8    16    17   ar
     9    17    10    1
    10    10     8    1
    11     8     1    1
    12     1     2   ar
    13     2     3   ar
    14     3     4   ar
    15     4    20    1
    16    20    21    1
    17    21    22   ar
    18    22    23   ar
    19    23    24   ar
    20    24    25   ar
    21    25    26   ar
    22    26    27   ar
    23    27    28    1
    24    27    29   ar
    25    29    30   ar
    26     4     5   ar
    27     5     6    1
    28     5     7   ar
    29    17    11   ar
    30     7     1   ar
    31    30    21   ar
    32    30    24    1
    33     8     9    1
    34    25    31    1
@<TRIPOS>MOLECULE
*****
 31 34 0 0 0
SMALL
GASTEIGER

@<TRIPOS>ATOM
      1 C          63.1673   90.4116   12.1255 C.ar    1  UNL1        0.1311
      2 C          63.5020   89.0976   12.7669 C.ar    1  UNL1        0.0339
      3 C          62.9612   87.8226   12.1908 C.ar    1  UNL1        0.0027
      4 C          62.0857   87.8616   10.9734 C.ar    1  UNL1        0.0283
      5 C          61.7510   89.1756   10.3320 C.ar    1  UNL1        0.2196
      6 F          60.8756   89.2145    9.1147 F       1  UNL1       -0.1835
      7 N          62.2918   90.4506   10.9081 N.ar    1  UNL1       -0.2035
      8 N          63.7081   91.6867   12.7015 N.pl3   1  UNL1       -0.3143
      9 H          63.0973   92.3362   13.1189 H       1  UNL1        0.1485
     10 C          65.1795   91.9721   12.6416 C.3     1  UNL1        0.1201
     11 C          65.2684   92.1140   15.2343 C.ar    1  UNL1        0.2225
     12 N          66.0261   92.4138   16.4936 N.ar    1  UNL1       -0.2080
     13 C          67.4527   92.8713   16.4196 C.ar    1  UNL1        0.1316
     14 C          68.1216   93.0291   15.0862 C.ar    1  UNL1        0.1592
     15 F          69.5482   93.4866   15.0123 F       1  UNL1       -0.2025
     16 C          67.3638   92.7293   13.8269 C.ar    1  UNL1        0.0333
     17 C          65.9372   92.2718   13.9009 C.ar    1  UNL1        0.0529
     18 C          63.4822   90.4508   16.1248 C.3     1  UNL1        0.2542
     19 O          63.8417   91.6565   15.3083 O.3     1  UNL1       -0.4563
     20 C          61.5449   86.5865   10.3974 C.3     1  UNL1        0.0582
     21 C          62.4397   85.3918   10.2486 C.ar    1  UNL1        0.0044
     22 C          63.0872   84.9281    8.9774 C.ar    1  UNL1        0.0966
     23 N          63.8918   83.7009    9.2881 N.ar    1  UNL1       -0.2273
     24 C          63.7417   83.4062   10.7512 C.ar    1  UNL1        0.1402
     25 N          64.3062   82.3212   11.6195 N.ar    1  UNL1       -0.3377
     26 C          63.9733   82.2813   13.0815 C.ar    1  UNL1        0.0691
     27 C          63.0758   83.3264   13.6752 C.ar    1  UNL1       -0.0047
     28 C          62.7429   83.2865   15.1373 C.3     1  UNL1        0.0326
     29 C          62.5113   84.4114   12.8068 C.ar    1  UNL1       -0.0001
     30 C          62.8442   84.4512   11.3448 C.ar    1  UNL1        0.0315
     31 H          64.8952   81.6353   11.2299 H       1  UNL1        0.1674
@<TRIPOS>BOND
     1    18    19    1
     2    19    11    1
     3    11    12   ar
     4    12    13   ar
     5    13    14   ar
     6    14    15    1
     7    14    16   ar
     8    16    17   ar
     9    17    10    1
    10    10     8    1
    11     8     1    1
    12     1     2   ar
    13     2     3   ar
    14     3     4   ar
    15     4    20    1
    16    20    21    1
    17    21    22   ar
    18    22    23   ar
    19    23    24   ar
    20    24    25   ar
    21    25    26   ar
    22    26    27   ar
    23    27    28    1
    24    27    29   ar
    25    29    30   ar
    26     4     5   ar
    27     5     6    1
    28     5     7   ar
    29    17    11   ar
    30     7     1   ar
    31    30    21   ar
    32    30    24    1
    33     8     9    1
    34    25    31    1
@<TRIPOS>MOLECULE
*****
 31 34 0 0 0
SMALL
GASTEIGER

@<TRIPOS>ATOM
      1 C          61.9100   89.2038   11.4947 C.ar    1  UNL1        0.1311
      2 C          62.2143   89.8341   10.1680 C.ar    1  UNL1        0.0339
      3 C          63.1735   90.9844   10.0866 C.ar    1  UNL1        0.0027
      4 C          63.8285   91.5044   11.3318 C.ar    1  UNL1        0.0283
      5 C          63.5242   90.8741   12.6586 C.ar    1  UNL1        0.2196
      6 F          64.1791   91.3942   13.9038 F       1  UNL1       -0.1835
      7 N          62.5649   89.7239   12.7400 N.ar    1  UNL1       -0.2035
      8 N          60.9507   88.0536   11.5762 N.pl3   1  UNL1       -0.3143
      9 H          60.7957   87.6020   12.4372 H       1  UNL1        0.1485
     10 C          60.2276   87.5912   10.3460 C.3     1  UNL1        0.1201
     11 C          60.3243   86.4506    8.0137 C.ar    1  UNL1        0.2225
     12 N          61.0049   85.5288    7.0457 N.ar    1  UNL1       -0.2080
     13 C          62.2694   84.8258    7.4420 C.ar    1  UNL1        0.1316
     14 C          62.8532   85.0447    8.8062 C.ar    1  UNL1        0.1592
     15 F          64.1177   84.3417    9.2024 F       1  UNL1       -0.2025
     16 C          62.1726   85.9665    9.7742 C.ar    1  UNL1        0.0333
     17 C          60.9082   86.6695    9.3780 C.ar    1  UNL1        0.0529
     18 C          59.1092   88.5760    7.1442 C.3     1  UNL1        0.2542
     19 O          59.0599   87.1535    7.6174 O.3     1  UNL1       -0.4563
     20 C          64.7878   92.6548   11.2504 C.3     1  UNL1        0.0582
     21 C          66.2646   92.4076   11.3398 C.ar    1  UNL1        0.0044
     22 C          67.1917   92.1777   10.1833 C.ar    1  UNL1        0.0966
     23 N          68.5736   91.9749   10.7303 N.ar    1  UNL1       -0.2273
     24 C          68.5005   92.0795   12.2248 C.ar    1  UNL1        0.1402
     25 N          69.5491   91.9658   13.2914 N.ar    1  UNL1       -0.3377
     26 C          69.1706   92.1194   14.7346 C.ar    1  UNL1        0.0691
     27 C          67.7435   92.3868   15.1114 C.ar    1  UNL1       -0.0047
     28 C          67.3650   92.5405   16.5547 C.3     1  UNL1        0.0326
     29 C          66.6949   92.5005   14.0448 C.ar    1  UNL1       -0.0001
     30 C          67.0735   92.3469   12.6016 C.ar    1  UNL1        0.0315
     31 H          70.4857   91.7903   13.0441 H       1  UNL1        0.1674
@<TRIPOS>BOND
     1    18    19    1
     2    19    11    1
     3    11    12   ar
     4    12    13   ar
     5    13    14   ar
     6    14    15    1
     7    14    16   ar
     8    16    17   ar
     9    17    10    1
    10    10     8    1
    11     8     1    1
    12     1     2   ar
    13     2     3   ar
    14     3     4   ar
    15     4    20    1
    16    20    21    1
    17    21    22   ar
    18    22    23   ar
    19    23    24   ar
    20    24    25   ar
    21    25    26   ar
    22    26    27   ar
    23    27    28    1
    24    27    29   ar
    25    29    30   ar
    26     4     5   ar
    27     5     6    1
    28     5     7   ar
    29    17    11   ar
    30     7     1   ar
    31    30    21   ar
    32    30    24    1
    33     8     9    1
    34    25    31    1
@<TRIPOS>MOLECULE
*****
 31 34 0 0 0
SMALL
GASTEIGER

@<TRIPOS>ATOM
      1 C          63.5281   90.7624   11.7105 C.ar    1  UNL1        0.1311
      2 C          63.6807   89.5632   12.5986 C.ar    1  UNL1        0.0339
      3 C          63.0003   88.2748   12.2424 C.ar    1  UNL1        0.0027
      4 C          62.1673   88.1854   10.9982 C.ar    1  UNL1        0.0283
      5 C          62.0147   89.3846   10.1100 C.ar    1  UNL1        0.2196
      6 F          61.1817   89.2953    8.8658 F       1  UNL1       -0.1835
      7 N          62.6951   90.6730   10.4662 N.ar    1  UNL1       -0.2035
      8 N          64.2084   92.0509   12.0666 N.pl3   1  UNL1       -0.3143
      9 H          64.3568   92.7365   11.3758 H       1  UNL1        0.1485
     10 C          64.6629   92.2948   13.4752 C.3     1  UNL1        0.1201
     11 C          67.1498   92.2231   12.7268 C.ar    1  UNL1        0.2225
     12 N          68.6076   92.1393   13.0698 N.ar    1  UNL1       -0.2080
     13 C          69.0364   92.0434   14.5040 C.ar    1  UNL1        0.1316
     14 C          68.0073   92.0313   15.5952 C.ar    1  UNL1        0.1592
     15 F          68.4362   91.9354   17.0295 F       1  UNL1       -0.2025
     16 C          66.5495   92.1151   15.2523 C.ar    1  UNL1        0.0333
     17 C          66.1207   92.2110   13.8180 C.ar    1  UNL1        0.0529
     18 C          67.7479   92.2943   10.1995 C.3     1  UNL1        0.2542
     19 O          66.7210   92.3191   11.2926 O.3     1  UNL1       -0.4563
     20 C          61.4868   86.8969   10.6420 C.3     1  UNL1        0.0582
     21 C          62.3007   85.7142   10.2073 C.ar    1  UNL1        0.0044
     22 C          62.7666   85.4301    8.8101 C.ar    1  UNL1        0.0966
     23 N          63.5453   84.1482    8.8329 N.ar    1  UNL1       -0.2273
     24 C          63.5607   83.6402   10.2441 C.ar    1  UNL1        0.1402
     25 N          64.1758   82.4213   10.8654 N.ar    1  UNL1       -0.3377
     26 C          64.0216   82.1703   12.3362 C.ar    1  UNL1        0.0691
     27 C          63.2524   83.1381   13.1856 C.ar    1  UNL1       -0.0047
     28 C          63.0982   82.8870   14.6565 C.3     1  UNL1        0.0326
     29 C          62.6373   84.3569   12.5644 C.ar    1  UNL1       -0.0001
     30 C          62.7915   84.6080   11.0936 C.ar    1  UNL1        0.0315
     31 H          64.6806   81.7861   10.3079 H       1  UNL1        0.1674
@<TRIPOS>BOND
     1    18    19    1
     2    19    11    1
     3    11    12   ar
     4    12    13   ar
     5    13    14   ar
     6    14    15    1
     7    14    16   ar
     8    16    17   ar
     9    17    10    1
    10    10     8    1
    11     8     1    1
    12     1     2   ar
    13     2     3   ar
    14     3     4   ar
    15     4    20    1
    16    20    21    1
    17    21    22   ar
    18    22    23   ar
    19    23    24   ar
    20    24    25   ar
    21    25    26   ar
    22    26    27   ar
    23    27    28    1
    24    27    29   ar
    25    29    30   ar
    26     4     5   ar
    27     5     6    1
    28     5     7   ar
    29    17    11   ar
    30     7     1   ar
    31    30    21   ar
    32    30    24    1
    33     8     9    1
    34    25    31    1
@<TRIPOS>MOLECULE
*****
 31 34 0 0 0
SMALL
GASTEIGER

@<TRIPOS>ATOM
      1 C          62.9641   90.6567   11.9049 C.ar    1  UNL1        0.1311
      2 C          63.4253   89.3839   12.5508 C.ar    1  UNL1        0.0339
      3 C          62.8983   88.0648   12.0691 C.ar    1  UNL1        0.0027
      4 C          61.9100   88.0184   10.9416 C.ar    1  UNL1        0.0283
      5 C          61.4488   89.2913   10.2958 C.ar    1  UNL1        0.2196
      6 F          60.4605   89.2450    9.1683 F       1  UNL1       -0.1835
      7 N          61.9759   90.6104   10.7775 N.ar    1  UNL1       -0.2035
      8 N          63.4911   91.9759   12.3866 N.pl3   1  UNL1       -0.3143
      9 H          63.0004   92.8053   12.1850 H       1  UNL1        0.1485
     10 C          64.7659   92.0316   13.1753 C.3     1  UNL1        0.1201
     11 C          67.3498   91.7629   13.2052 C.ar    1  UNL1        0.2225
     12 N          68.6697   91.8162   12.4945 N.ar    1  UNL1       -0.2080
     13 C          68.7255   92.1913   11.0432 C.ar    1  UNL1        0.1316
     14 C          67.4614   92.5132   10.3027 C.ar    1  UNL1        0.1592
     15 F          67.5172   92.8883    8.8514 F       1  UNL1       -0.2025
     16 C          66.1415   92.4600   11.0134 C.ar    1  UNL1        0.0333
     17 C          66.0857   92.0848   12.4646 C.ar    1  UNL1        0.0529
     18 C          67.9220   92.2794   15.6863 C.3     1  UNL1        0.2542
     19 O          67.2941   91.3878   14.6565 O.3     1  UNL1       -0.4563
     20 C          61.3830   86.6992   10.4599 C.3     1  UNL1        0.0582
     21 C          62.3228   85.5507   10.2415 C.ar    1  UNL1        0.0044
     22 C          62.9493   85.1602    8.9358 C.ar    1  UNL1        0.0966
     23 N          63.8148   83.9592    9.1778 N.ar    1  UNL1       -0.2273
     24 C          63.7231   83.6074   10.6331 C.ar    1  UNL1        0.1402
     25 N          64.3602   82.5186   11.4446 N.ar    1  UNL1       -0.3377
     26 C          64.0751   82.4133   12.9134 C.ar    1  UNL1        0.0691
     27 C          63.1529   83.3969   13.5708 C.ar    1  UNL1       -0.0047
     28 C          62.8678   83.2916   15.0398 C.3     1  UNL1        0.0326
     29 C          62.5159   84.4858   12.7594 C.ar    1  UNL1       -0.0001
     30 C          62.8010   84.5910   11.2905 C.ar    1  UNL1        0.0315
     31 H          64.9654   81.8730   11.0131 H       1  UNL1        0.1674
@<TRIPOS>BOND
     1    18    19    1
     2    19    11    1
     3    11    12   ar
     4    12    13   ar
     5    13    14   ar
     6    14    15    1
     7    14    16   ar
     8    16    17   ar
     9    17    10    1
    10    10     8    1
    11     8     1    1
    12     1     2   ar
    13     2     3   ar
    14     3     4   ar
    15     4    20    1
    16    20    21    1
    17    21    22   ar
    18    22    23   ar
    19    23    24   ar
    20    24    25   ar
    21    25    26   ar
    22    26    27   ar
    23    27    28    1
    24    27    29   ar
    25    29    30   ar
    26     4     5   ar
    27     5     6    1
    28     5     7   ar
    29    17    11   ar
    30     7     1   ar
    31    30    21   ar
    32    30    24    1
    33     8     9    1
    34    25    31    1
