@<TRIPOS>MOLECULE
*****
 55 60 0 0 0
SMALL
GASTEIGER

@<TRIPOS>ATOM
      1 N          61.2481   85.8248    8.3517 N.3     1  UNL1       -0.1862
      2 C          62.1167   84.6915    8.8110 C.3     1  UNL1        0.1775
      3 C          62.8794   84.8048   10.0977 C.2     1  UNL1        0.2452
      4 O          63.7480   83.6714   10.5570 O.2     1  UNL1       -0.2732
      5 N          62.7734   86.0515   10.9250 N.am    1  UNL1       -0.2541
      6 C          63.5361   86.1649   12.2116 C.3     1  UNL1        0.1577
      7 C          63.4302   87.4116   13.0389 C.2     1  UNL1        0.2445
      8 O          64.1929   87.5249   14.3256 O.2     1  UNL1       -0.2731
      9 N          62.5616   88.5450   12.5796 N.am    1  UNL1       -0.2705
     10 C          61.7989   88.4316   11.2930 C.3     1  UNL1        0.1359
     11 C          61.9048   87.1848   10.4657 C.3     1  UNL1        0.1908
     12 N          61.1421   87.0715    9.1790 N.am    1  UNL1       -0.1863
     13 C          60.2735   88.2049    8.7197 C.2     1  UNL1        0.3191
     14 O          60.1676   89.4516    9.5470 O.2     1  UNL1       -0.2512
     15 N          59.5108   88.0915    7.4331 N.am    1  UNL1       -0.2836
     16 H          59.5803   87.2733    6.8901 H       1  UNL1        0.1513
     17 C          60.4854   85.7114    7.0651 C.3     1  UNL1        0.1188
     18 C          61.8856   84.3627    5.3416 C.2     1  UNL1       -0.0034
     19 C          60.6593   84.5027    6.1941 C.2     1  UNL1       -0.0071
     20 C          64.4047   85.0315   12.6709 C.3     1  UNL1        0.0556
     21 C          63.7802   83.7756   13.2024 C.ar    1  UNL1       -0.0198
     22 C          62.6169   83.8575   14.1459 C.ar    1  UNL1       -0.0011
     23 C          61.9924   82.6016   14.6773 C.ar    1  UNL1        0.0363
     24 C          62.5310   81.2637   14.2653 C.ar    1  UNL1        0.1337
     25 O          61.9064   80.0077   14.7968 O.3     1  UNL1       -0.5055
     26 C          63.6943   81.1816   13.3218 C.ar    1  UNL1        0.0363
     27 C          64.3189   82.4376   12.7903 C.ar    1  UNL1       -0.0011
     28 H          61.1798   80.0589   15.3861 H       1  UNL1        0.2922
     29 C          62.4556   89.7917   13.4070 C.3     1  UNL1        0.1217
     30 C          63.6401   90.7013   13.5477 C.ar    1  UNL1        0.0135
     31 C          64.3705   90.7847   14.8552 C.ar    1  UNL1       -0.0012
     32 C          65.5548   91.6943   14.9960 C.ar    1  UNL1       -0.0002
     33 C          66.0088   92.5205   13.8293 C.ar    1  UNL1        0.0016
     34 C          65.2784   92.4371   12.5218 C.ar    1  UNL1        0.0214
     35 C          65.4927   93.1260   11.2067 C.ar    1  UNL1        0.0719
     36 C          64.4407   92.6422   10.2532 C.ar    1  UNL1        0.0805
     37 N          63.5763   91.6543   10.9789 N.ar    1  UNL1       -0.3241
     38 C          62.4006   90.9217   10.4036 C.3     1  UNL1        0.1305
     39 C          64.0941   91.5275   12.3810 C.ar    1  UNL1        0.0577
     40 C          66.5699   94.1237   10.8992 C.2     1  UNL1        0.2473
     41 O          67.9998   93.6796   10.8087 O.2     1  UNL1       -0.2701
     42 N          66.2171   95.5653   10.6822 N.am    1  UNL1       -0.3007
     43 H          65.2786   95.8568   10.7416 H       1  UNL1        0.1497
     44 C          67.2942   96.5630   10.3747 C.3     1  UNL1        0.0923
     45 C          67.6666   96.8496    8.9502 C.3     1  UNL1        0.0533
     46 C          67.2152   95.9271    7.8569 C.3     1  UNL1        0.1440
     47 O          65.7686   95.8823    7.4630 O.3     1  UNL1       -0.3510
     48 C          65.2382   96.8479    6.4450 C.3     1  UNL1        0.1741
     49 C          58.6422   89.2249    6.9737 C.3     1  UNL1        0.1177
     50 C          59.1576   90.2009    5.9580 C.ar    1  UNL1       -0.0025
     51 C          60.6222   90.2467    5.6377 C.ar    1  UNL1       -0.0026
     52 C          61.1377   91.2227    4.6220 C.ar    1  UNL1       -0.0003
     53 C          60.1885   92.1530    3.9266 C.ar    1  UNL1       -0.0000
     54 C          58.7237   92.1072    4.2469 C.ar    1  UNL1       -0.0003
     55 C          58.2083   91.1312    5.2626 C.ar    1  UNL1       -0.0026
@<TRIPOS>BOND
     1    18    19    2
     2    19    17    1
     3    17     1    1
     4     1     2    1
     5     2     3    1
     6     3     4    2
     7     3     5   am
     8     5     6    1
     9     6    20    1
    10    20    21    1
    11    21    22   ar
    12    22    23   ar
    13    23    24   ar
    14    24    25    1
    15    24    26   ar
    16    26    27   ar
    17     6     7    1
    18     7     8    2
    19     7     9   am
    20     9    29    1
    21    29    30    1
    22    30    31   ar
    23    31    32   ar
    24    32    33   ar
    25    33    34   ar
    26    34    35   ar
    27    35    40    1
    28    40    41    2
    29    40    42   am
    30    42    44    1
    31    44    45    1
    32    45    46    1
    33    46    47    1
    34    47    48    1
    35    35    36   ar
    36    36    37   ar
    37    37    38    1
    38    37    39   ar
    39     9    10    1
    40    11    10    1
    41    11    12    1
    42    12    13   am
    43    13    14    2
    44    13    15   am
    45    15    49    1
    46    49    50    1
    47    50    51   ar
    48    51    52   ar
    49    52    53   ar
    50    53    54   ar
    51    54    55   ar
    52    12     1    1
    53    55    50   ar
    54    11     5    1
    55    27    21   ar
    56    39    30   ar
    57    39    34   ar
    58    25    28    1
    59    42    43    1
    60    15    16    1
