@<TRIPOS>MOLECULE
*****
 17 19 0 0 0
SMALL
GASTEIGER

@<TRIPOS>ATOM
      1 N          63.7584   84.3139   14.9780 N.3     1  UNL1       -0.2648
      2 C          62.6492   83.3344   15.2232 C.3     1  UNL1        0.0779
      3 C          62.2438   82.3747   14.1439 C.3     1  UNL1        0.0500
      4 C          62.9478   82.3946   12.8195 C.ar    1  UNL1        0.0060
      5 S          62.7689   81.5758   11.5755 S.2     1  UNL1       -0.0910
      6 C          63.7677   82.0493   10.5614 C.ar    1  UNL1        0.0348
      7 C          64.5638   83.1607   11.1787 C.ar    1  UNL1        0.0042
      8 C          64.0570   83.3741   12.5743 C.ar    1  UNL1       -0.0036
      9 C          64.4623   84.3337   13.6536 C.3     1  UNL1        0.0996
     10 C          64.1638   85.2736   16.0572 C.3     1  UNL1        0.1002
     11 CL         62.6494   86.8248   18.1310 Cl      1  UNL1       -0.0825
     12 C          63.1801   87.5208   16.9128 C.ar    1  UNL1        0.0550
     13 C          62.9536   88.9926   16.7315 C.ar    1  UNL1        0.0111
     14 C          63.4842   89.6887   15.5135 C.ar    1  UNL1        0.0008
     15 C          64.2414   88.9131   14.4765 C.ar    1  UNL1       -0.0002
     16 C          64.4679   87.4414   14.6578 C.ar    1  UNL1       -0.0021
     17 C          63.9373   86.7452   15.8759 C.ar    1  UNL1        0.0045
@<TRIPOS>BOND
     1    11    12    1
     2    12    13   ar
     3    13    14   ar
     4    14    15   ar
     5    15    16   ar
     6    16    17   ar
     7    17    10    1
     8    10     1    1
     9     1     2    1
    10     2     3    1
    11     3     4    1
    12     4     5   ar
    13     5     6   ar
    14     6     7   ar
    15     7     8   ar
    16     8     9    1
    17    17    12   ar
    18     9     1    1
    19     8     4   ar
@<TRIPOS>MOLECULE
*****
 17 19 0 0 0
SMALL
GASTEIGER

@<TRIPOS>ATOM
      1 N          62.3163   87.7324   11.3807 N.3     1  UNL1       -0.2648
      2 C          62.1720   88.8980   10.4479 C.3     1  UNL1        0.0779
      3 C          62.7985   90.2167   10.7925 C.3     1  UNL1        0.0500
      4 C          63.5693   90.3696   12.0702 C.ar    1  UNL1        0.0060
      5 S          64.2919   91.5378   12.6727 S.2     1  UNL1       -0.0910
      6 C          64.8829   91.0942   13.9781 C.ar    1  UNL1        0.0348
      7 C          64.5255   89.6517   14.1823 C.ar    1  UNL1        0.0042
      8 C          63.7136   89.2039   13.0031 C.ar    1  UNL1       -0.0036
      9 C          63.0872   87.8853   12.6584 C.3     1  UNL1        0.0996
     10 C          61.6899   86.4138   11.0361 C.3     1  UNL1        0.1002
     11 CL         62.9995   85.5000    8.4964 Cl      1  UNL1       -0.0825
     12 C          63.1782   84.7098    9.7588 C.ar    1  UNL1        0.0550
     13 C          64.0117   83.4626    9.7514 C.ar    1  UNL1        0.0111
     14 C          64.1903   82.6724   11.0137 C.ar    1  UNL1        0.0008
     15 C          63.5355   83.1293   12.2836 C.ar    1  UNL1       -0.0002
     16 C          62.7021   84.3764   12.2910 C.ar    1  UNL1       -0.0021
     17 C          62.5233   85.1667   11.0287 C.ar    1  UNL1        0.0045
@<TRIPOS>BOND
     1    11    12    1
     2    12    13   ar
     3    13    14   ar
     4    14    15   ar
     5    15    16   ar
     6    16    17   ar
     7    17    10    1
     8    10     1    1
     9     1     2    1
    10     2     3    1
    11     3     4    1
    12     4     5   ar
    13     5     6   ar
    14     6     7   ar
    15     7     8   ar
    16     8     9    1
    17    17    12   ar
    18     9     1    1
    19     8     4   ar
@<TRIPOS>MOLECULE
*****
 17 19 0 0 0
SMALL
GASTEIGER

@<TRIPOS>ATOM
      1 N          62.9041   86.0092   12.3945 N.3     1  UNL1       -0.2648
      2 C          61.8391   85.5831   11.4280 C.3     1  UNL1        0.0779
      3 C          61.1612   86.6028   10.5614 C.3     1  UNL1        0.0500
      4 C          61.5484   88.0485   10.6615 C.ar    1  UNL1        0.0060
      5 S          61.0597   89.2705    9.9419 S.2     1  UNL1       -0.0910
      6 C          61.8226   90.4518   10.4638 C.ar    1  UNL1        0.0348
      7 C          62.7829   89.9599   11.5059 C.ar    1  UNL1        0.0042
      8 C          62.6134   88.4745   11.6281 C.ar    1  UNL1       -0.0036
      9 C          63.2912   87.4549   12.4946 C.3     1  UNL1        0.0996
     10 C          63.5819   84.9895   13.2611 C.3     1  UNL1        0.1002
     11 CL         64.4787   83.1644   11.0555 Cl      1  UNL1       -0.0825
     12 C          63.5726   82.6487   12.1340 C.ar    1  UNL1        0.0550
     13 C          63.1149   81.2204   12.1096 C.ar    1  UNL1        0.0111
     14 C          62.2088   80.7047   13.1880 C.ar    1  UNL1        0.0008
     15 C          61.7604   81.6173   14.2909 C.ar    1  UNL1       -0.0002
     16 C          62.2181   83.0455   14.3152 C.ar    1  UNL1       -0.0021
     17 C          63.1242   83.5613   13.2368 C.ar    1  UNL1        0.0045
@<TRIPOS>BOND
     1    11    12    1
     2    12    13   ar
     3    13    14   ar
     4    14    15   ar
     5    15    16   ar
     6    16    17   ar
     7    17    10    1
     8    10     1    1
     9     1     2    1
    10     2     3    1
    11     3     4    1
    12     4     5   ar
    13     5     6   ar
    14     6     7   ar
    15     7     8   ar
    16     8     9    1
    17    17    12   ar
    18     9     1    1
    19     8     4   ar
@<TRIPOS>MOLECULE
*****
 17 19 0 0 0
SMALL
GASTEIGER

@<TRIPOS>ATOM
      1 N          62.9101   86.0319   12.2799 N.3     1  UNL1       -0.2648
      2 C          63.1699   87.4980   12.4612 C.3     1  UNL1        0.0779
      3 C          62.5158   88.4940   11.5501 C.3     1  UNL1        0.0500
      4 C          61.6018   88.0238   10.4577 C.ar    1  UNL1        0.0060
      5 S          60.8210   88.7657    9.4136 S.2     1  UNL1       -0.0910
      6 C          60.0786   87.7580    8.5869 C.ar    1  UNL1        0.0348
      7 C          60.4005   86.3934    9.1201 C.ar    1  UNL1        0.0042
      8 C          61.3419   86.5577   10.2763 C.ar    1  UNL1       -0.0036
      9 C          61.9960   85.5617   11.1874 C.3     1  UNL1        0.0996
     10 C          63.5642   85.0358   13.1910 C.3     1  UNL1        0.1002
     11 CL         64.5233   83.1560   11.0587 Cl      1  UNL1       -0.0825
     12 C          63.5879   82.6669   12.1245 C.ar    1  UNL1        0.0550
     13 C          63.1321   81.2377   12.1241 C.ar    1  UNL1        0.0111
     14 C          62.1968   80.7486   13.1898 C.ar    1  UNL1        0.0008
     15 C          61.7172   81.6885   14.2560 C.ar    1  UNL1       -0.0002
     16 C          62.1730   83.1175   14.2563 C.ar    1  UNL1       -0.0021
     17 C          63.1084   83.6068   13.1906 C.ar    1  UNL1        0.0045
@<TRIPOS>BOND
     1    11    12    1
     2    12    13   ar
     3    13    14   ar
     4    14    15   ar
     5    15    16   ar
     6    16    17   ar
     7    17    10    1
     8    10     1    1
     9     1     2    1
    10     2     3    1
    11     3     4    1
    12     4     5   ar
    13     5     6   ar
    14     6     7   ar
    15     7     8   ar
    16     8     9    1
    17    17    12   ar
    18     9     1    1
    19     8     4   ar
@<TRIPOS>MOLECULE
*****
 17 19 0 0 0
SMALL
GASTEIGER

@<TRIPOS>ATOM
      1 N          63.0670   84.6815   10.0647 N.3     1  UNL1       -0.2648
      2 C          63.9061   83.4504    9.8906 C.3     1  UNL1        0.0779
      3 C          64.1911   82.5644   11.0670 C.3     1  UNL1        0.0500
      4 C          63.6370   82.9096   12.4175 C.ar    1  UNL1        0.0060
      5 S          63.7486   82.2321   13.7511 S.2     1  UNL1       -0.0910
      6 C          62.9784   83.0446   14.7495 C.ar    1  UNL1        0.0348
      7 C          62.3909   84.2242   14.0329 C.ar    1  UNL1        0.0042
      8 C          62.7980   84.1407   12.5916 C.ar    1  UNL1       -0.0036
      9 C          62.5130   85.0266   11.4152 C.3     1  UNL1        0.0996
     10 C          62.7820   85.5675    8.8883 C.3     1  UNL1        0.1002
     11 CL         60.0946   85.7394    7.5662 Cl      1  UNL1       -0.0825
     12 C          60.5945   86.8814    8.4004 C.ar    1  UNL1        0.0550
     13 C          59.7506   88.1095    8.5735 C.ar    1  UNL1        0.0111
     14 C          60.2504   89.2515    9.4076 C.ar    1  UNL1        0.0008
     15 C          61.5942   89.1656   10.0688 C.ar    1  UNL1       -0.0002
     16 C          62.4380   87.9376    9.8956 C.ar    1  UNL1       -0.0021
     17 C          61.9382   86.7955    9.0614 C.ar    1  UNL1        0.0045
@<TRIPOS>BOND
     1    11    12    1
     2    12    13   ar
     3    13    14   ar
     4    14    15   ar
     5    15    16   ar
     6    16    17   ar
     7    17    10    1
     8    10     1    1
     9     1     2    1
    10     2     3    1
    11     3     4    1
    12     4     5   ar
    13     5     6   ar
    14     6     7   ar
    15     7     8   ar
    16     8     9    1
    17    17    12   ar
    18     9     1    1
    19     8     4   ar
@<TRIPOS>MOLECULE
*****
 17 19 0 0 0
SMALL
GASTEIGER

@<TRIPOS>ATOM
      1 N          63.8089   85.1387   15.5734 N.3     1  UNL1       -0.2648
      2 C          63.0476   85.4612   16.8248 C.3     1  UNL1        0.0779
      3 C          62.7881   86.8909   17.1975 C.3     1  UNL1        0.0500
      4 C          63.2900   87.9979   16.3185 C.ar    1  UNL1        0.0060
      5 S          63.1879   89.4905   16.4273 S.2     1  UNL1       -0.0910
      6 C          63.8861   90.0903   15.2429 C.ar    1  UNL1        0.0348
      7 C          64.4198   88.9685   14.4023 C.ar    1  UNL1        0.0042
      8 C          64.0514   87.6753   15.0670 C.ar    1  UNL1       -0.0036
      9 C          64.3108   86.2457   14.6945 C.3     1  UNL1        0.0996
     10 C          64.0684   83.7090   15.2007 C.3     1  UNL1        0.1002
     11 CL         61.7595   81.8924   14.5932 Cl      1  UNL1       -0.0825
     12 C          62.6744   82.3369   13.4908 C.ar    1  UNL1        0.0550
     13 C          62.4348   81.8731   12.0845 C.ar    1  UNL1        0.0111
     14 C          63.3496   82.3175   10.9820 C.ar    1  UNL1        0.0008
     15 C          64.5041   83.2259   11.2857 C.ar    1  UNL1       -0.0002
     16 C          64.7436   83.6897   12.6920 C.ar    1  UNL1       -0.0021
     17 C          63.8288   83.2452   13.7945 C.ar    1  UNL1        0.0045
@<TRIPOS>BOND
     1    11    12    1
     2    12    13   ar
     3    13    14   ar
     4    14    15   ar
     5    15    16   ar
     6    16    17   ar
     7    17    10    1
     8    10     1    1
     9     1     2    1
    10     2     3    1
    11     3     4    1
    12     4     5   ar
    13     5     6   ar
    14     6     7   ar
    15     7     8   ar
    16     8     9    1
    17    17    12   ar
    18     9     1    1
    19     8     4   ar
@<TRIPOS>MOLECULE
*****
 17 19 0 0 0
SMALL
GASTEIGER

@<TRIPOS>ATOM
      1 N          62.0635   89.5158   11.5807 N.3     1  UNL1       -0.2648
      2 C          60.8781   90.2603   11.0417 C.3     1  UNL1        0.0779
      3 C          60.0683   89.6728    9.9241 C.3     1  UNL1        0.0500
      4 C          60.4439   88.3408    9.3456 C.ar    1  UNL1        0.0060
      5 S          59.8391   87.5169    8.2476 S.2     1  UNL1       -0.0910
      6 C          60.6508   86.2632    8.1082 C.ar    1  UNL1        0.0348
      7 C          61.7571   86.3123    9.1199 C.ar    1  UNL1        0.0042
      8 C          61.6293   87.5963    9.8847 C.ar    1  UNL1       -0.0036
      9 C          62.4390   88.1838   11.0022 C.3     1  UNL1        0.0996
     10 C          62.8733   90.1033   12.6984 C.3     1  UNL1        0.1002
     11 CL         64.8770   90.7851   14.8246 Cl      1  UNL1       -0.0825
     12 C          65.0008   91.3876   13.4565 C.ar    1  UNL1        0.0550
     13 C          66.1265   92.3310   13.1514 C.ar    1  UNL1        0.0111
     14 C          66.2503   92.9334   11.7834 C.ar    1  UNL1        0.0008
     15 C          65.2484   92.5926   10.7202 C.ar    1  UNL1       -0.0002
     16 C          64.1228   91.6492   11.0253 C.ar    1  UNL1       -0.0021
     17 C          63.9989   91.0467   12.3934 C.ar    1  UNL1        0.0045
@<TRIPOS>BOND
     1    11    12    1
     2    12    13   ar
     3    13    14   ar
     4    14    15   ar
     5    15    16   ar
     6    16    17   ar
     7    17    10    1
     8    10     1    1
     9     1     2    1
    10     2     3    1
    11     3     4    1
    12     4     5   ar
    13     5     6   ar
    14     6     7   ar
    15     7     8   ar
    16     8     9    1
    17    17    12   ar
    18     9     1    1
    19     8     4   ar
@<TRIPOS>MOLECULE
*****
 17 19 0 0 0
SMALL
GASTEIGER

@<TRIPOS>ATOM
      1 N          62.8703   86.1522   12.3113 N.3     1  UNL1       -0.2648
      2 C          61.7858   85.7226   11.3683 C.3     1  UNL1        0.0779
      3 C          61.0835   86.7405   10.5193 C.3     1  UNL1        0.0500
      4 C          61.4657   88.1879   10.6134 C.ar    1  UNL1        0.0060
      5 S          60.9548   89.4088    9.9075 S.2     1  UNL1       -0.0910
      6 C          61.7235   90.5929   10.4143 C.ar    1  UNL1        0.0348
      7 C          62.7095   90.1039   11.4334 C.ar    1  UNL1        0.0042
      8 C          62.5502   88.6174   11.5565 C.ar    1  UNL1       -0.0036
      9 C          63.2525   87.5996   12.4054 C.3     1  UNL1        0.0996
     10 C          63.5726   85.1343   13.1604 C.3     1  UNL1        0.1002
     11 CL         62.1585   83.9559   15.5292 Cl      1  UNL1       -0.0825
     12 C          62.4232   83.1121   14.3177 C.ar    1  UNL1        0.0550
     13 C          61.9809   81.6790   14.2906 C.ar    1  UNL1        0.0111
     14 C          62.2456   80.8352   13.0791 C.ar    1  UNL1        0.0008
     15 C          62.9527   81.4243   11.8946 C.ar    1  UNL1       -0.0002
     16 C          63.3950   82.8573   11.9217 C.ar    1  UNL1       -0.0021
     17 C          63.1303   83.7013   13.1332 C.ar    1  UNL1        0.0045
@<TRIPOS>BOND
     1    11    12    1
     2    12    13   ar
     3    13    14   ar
     4    14    15   ar
     5    15    16   ar
     6    16    17   ar
     7    17    10    1
     8    10     1    1
     9     1     2    1
    10     2     3    1
    11     3     4    1
    12     4     5   ar
    13     5     6   ar
    14     6     7   ar
    15     7     8   ar
    16     8     9    1
    17    17    12   ar
    18     9     1    1
    19     8     4   ar
@<TRIPOS>MOLECULE
*****
 17 19 0 0 0
SMALL
GASTEIGER

@<TRIPOS>ATOM
      1 N          62.4839   88.8539   11.4191 N.3     1  UNL1       -0.2648
      2 C          62.5662   89.9704   10.4209 C.3     1  UNL1        0.0779
      3 C          63.4186   91.1711   10.7073 C.3     1  UNL1        0.0500
      4 C          64.1886   91.2551   11.9918 C.ar    1  UNL1        0.0060
      5 S          65.1048   92.3055   12.5459 S.2     1  UNL1       -0.0910
      6 C          65.5888   91.8381   13.8865 C.ar    1  UNL1        0.0348
      7 C          64.9716   90.4988   14.1610 C.ar    1  UNL1        0.0042
      8 C          64.1062   90.1385   12.9900 C.ar    1  UNL1       -0.0036
      9 C          63.2539   88.9378   12.7036 C.3     1  UNL1        0.0996
     10 C          61.6315   87.6532   11.1328 C.3     1  UNL1        0.1002
     11 CL         62.4963   85.2837   12.7569 Cl      1  UNL1       -0.0825
     12 C          62.6593   85.2708   11.2658 C.ar    1  UNL1        0.0550
     13 C          63.2548   84.0730   10.5868 C.ar    1  UNL1        0.0111
     14 C          63.4178   84.0601    9.0958 C.ar    1  UNL1        0.0008
     15 C          62.9854   85.2448    8.2836 C.ar    1  UNL1       -0.0002
     16 C          62.3900   86.4425    8.9627 C.ar    1  UNL1       -0.0021
     17 C          62.2269   86.4555   10.4537 C.ar    1  UNL1        0.0045
@<TRIPOS>BOND
     1    11    12    1
     2    12    13   ar
     3    13    14   ar
     4    14    15   ar
     5    15    16   ar
     6    16    17   ar
     7    17    10    1
     8    10     1    1
     9     1     2    1
    10     2     3    1
    11     3     4    1
    12     4     5   ar
    13     5     6   ar
    14     6     7   ar
    15     7     8   ar
    16     8     9    1
    17    17    12   ar
    18     9     1    1
    19     8     4   ar
