@<TRIPOS>MOLECULE
*****
 35 38 0 0 0
SMALL
GASTEIGER

@<TRIPOS>ATOM
      1 C          63.3683   84.6915   13.2559 C.3     1  UNL1        0.3254
      2 F          64.6289   85.5005   13.1747 F       1  UNL1       -0.1949
      3 F          61.9976   84.1104   13.0731 F       1  UNL1       -0.1949
      4 C          62.7583   85.5335   12.1747 C.ar    1  UNL1        0.1218
      5 C          62.0866   84.8794   11.0038 C.ar    1  UNL1        0.0208
      6 C          61.4766   85.7214    9.9226 C.ar    1  UNL1        0.0112
      7 C          61.5383   87.2174   10.0122 C.ar    1  UNL1        0.0611
      8 C          62.2101   87.8715   11.1832 C.ar    1  UNL1        0.1068
      9 N          62.8201   87.0295   12.2643 N.ar    1  UNL1       -0.2421
     10 C          60.9284   88.0594    8.9311 C.1     1  UNL1       -0.0582
     11 C          60.3184   88.9014    7.8499 C.1     1  UNL1       -0.0597
     12 C          59.7084   89.7434    6.7686 C.ar    1  UNL1        0.0420
     13 C          58.2168   89.8249    6.6331 C.ar    1  UNL1        0.0091
     14 C          57.6069   90.6668    5.5519 C.ar    1  UNL1        0.0120
     15 C          58.4886   91.4273    4.6062 C.ar    1  UNL1        0.0577
     16 CL         57.8786   92.2693    3.5250 Cl      1  UNL1       -0.0822
     17 C          59.9802   91.3458    4.7417 C.ar    1  UNL1        0.0120
     18 C          60.5901   90.5038    5.8229 C.ar    1  UNL1        0.0091
     19 O          64.5883   83.0077   15.4183 O.3     1  UNL1       -0.3755
     20 C          63.9783   83.8496   14.3371 C.3     1  UNL1        0.1932
     21 H          64.4603   83.4411   16.2766 H       1  UNL1        0.2110
     22 C          63.5675   82.6082   13.6022 C.ar    1  UNL1        0.0368
     23 C          62.5844   81.6601   14.2224 C.ar    1  UNL1        0.0028
     24 C          62.1736   80.4187   13.4876 C.ar    1  UNL1        0.0295
     25 C          62.7459   80.1253   12.1324 C.ar    1  UNL1        0.1424
     26 F          62.3351   78.8839   11.3975 F       1  UNL1       -0.2041
     27 C          63.7290   81.0733   11.5122 C.ar    1  UNL1        0.0590
     28 C          64.1399   82.3148   12.2471 C.ar    1  UNL1        0.1408
     29 F          65.1230   83.2628   11.6269 F       1  UNL1       -0.2043
     30 C          64.3891   85.0910   15.0721 C.3     1  UNL1        0.1679
     31 N          63.3956   85.8196   15.9276 N.ar    1  UNL1       -0.2078
     32 C          63.5176   87.2345   16.4103 C.ar    1  UNL1        0.2216
     33 N          62.3030   87.5505   17.2317 N.ar    1  UNL1       -0.1048
     34 N          61.4302   86.3308   17.2567 N.ar    1  UNL1       -0.0226
     35 N          62.1054   85.2610   16.4507 N.ar    1  UNL1       -0.0428
@<TRIPOS>BOND
     1    19    20    1
     2    20    30    1
     3    30    31    1
     4    31    32   ar
     5    32    33   ar
     6    33    34   ar
     7    34    35   ar
     8    20    22    1
     9    22    23   ar
    10    23    24   ar
    11    24    25   ar
    12    25    26    1
    13    25    27   ar
    14    27    28   ar
    15    28    29    1
    16    20     1    1
    17     1     2    1
    18     1     3    1
    19     1     4    1
    20     4     5   ar
    21     5     6   ar
    22     6     7   ar
    23     7    10    1
    24    10    11    3
    25    11    12    1
    26    12    13   ar
    27    13    14   ar
    28    14    15   ar
    29    15    16    1
    30    15    17   ar
    31    17    18   ar
    32     7     8   ar
    33     8     9   ar
    34    35    31   ar
    35    28    22   ar
    36     9     4   ar
    37    18    12   ar
    38    19    21    1
@<TRIPOS>MOLECULE
*****
 35 38 0 0 0
SMALL
GASTEIGER

@<TRIPOS>ATOM
      1 C          63.3739   85.0621   13.0825 C.3     1  UNL1        0.3254
      2 F          64.5025   86.0470   13.1626 F       1  UNL1       -0.1949
      3 F          62.1252   84.3040   12.7419 F       1  UNL1       -0.1949
      4 C          62.7387   85.8783   11.9961 C.ar    1  UNL1        0.1218
      5 C          62.0701   85.1966   10.8393 C.ar    1  UNL1        0.0208
      6 C          61.4348   86.0128    9.7528 C.ar    1  UNL1        0.0112
      7 C          61.4683   87.5108    9.8232 C.ar    1  UNL1        0.0611
      8 C          62.1369   88.1925   10.9801 C.ar    1  UNL1        0.1068
      9 N          62.7721   87.3763   12.0664 N.ar    1  UNL1       -0.2421
     10 C          60.8331   88.3270    8.7368 C.1     1  UNL1       -0.0582
     11 C          60.1979   89.1432    7.6505 C.1     1  UNL1       -0.0597
     12 C          59.5627   89.9595    6.5640 C.ar    1  UNL1        0.0420
     13 C          58.0696   89.9906    6.4248 C.ar    1  UNL1        0.0091
     14 C          57.4345   90.8069    5.3384 C.ar    1  UNL1        0.0120
     15 C          58.2925   91.5920    4.3912 C.ar    1  UNL1        0.0577
     16 CL         57.6574   92.4083    3.3047 Cl      1  UNL1       -0.0822
     17 C          59.7857   91.5609    4.5304 C.ar    1  UNL1        0.0120
     18 C          60.4208   90.7446    5.6168 C.ar    1  UNL1        0.0091
     19 O          64.6444   83.4298   15.2553 O.3     1  UNL1       -0.3755
     20 C          64.0091   84.2459   14.1689 C.3     1  UNL1        0.1932
     21 H          64.4988   83.8619   16.1115 H       1  UNL1        0.2110
     22 C          63.6437   82.9882   13.4378 C.ar    1  UNL1        0.0368
     23 C          64.3406   82.6357   12.1571 C.ar    1  UNL1        0.0028
     24 C          63.9752   81.3780   11.4260 C.ar    1  UNL1        0.0295
     25 C          62.9128   80.4728   11.9754 C.ar    1  UNL1        0.1424
     26 F          62.5474   79.2151   11.2443 F       1  UNL1       -0.2041
     27 C          62.2159   80.8253   13.2560 C.ar    1  UNL1        0.0590
     28 C          62.5813   82.0830   13.9873 C.ar    1  UNL1        0.1408
     29 F          61.8844   82.4355   15.2679 F       1  UNL1       -0.2043
     30 C          64.3746   85.5037   14.9002 C.3     1  UNL1        0.1679
     31 N          63.4237   86.0939   15.8988 N.ar    1  UNL1       -0.2078
     32 C          63.4563   87.4987   16.4238 C.ar    1  UNL1        0.2216
     33 N          62.3259   87.6560   17.3972 N.ar    1  UNL1       -0.1048
     34 N          61.5947   86.3485   17.4737 N.ar    1  UNL1       -0.0226
     35 N          62.2732   85.3831   16.5476 N.ar    1  UNL1       -0.0428
@<TRIPOS>BOND
     1    19    20    1
     2    20    30    1
     3    30    31    1
     4    31    32   ar
     5    32    33   ar
     6    33    34   ar
     7    34    35   ar
     8    20    22    1
     9    22    23   ar
    10    23    24   ar
    11    24    25   ar
    12    25    26    1
    13    25    27   ar
    14    27    28   ar
    15    28    29    1
    16    20     1    1
    17     1     2    1
    18     1     3    1
    19     1     4    1
    20     4     5   ar
    21     5     6   ar
    22     6     7   ar
    23     7    10    1
    24    10    11    3
    25    11    12    1
    26    12    13   ar
    27    13    14   ar
    28    14    15   ar
    29    15    16    1
    30    15    17   ar
    31    17    18   ar
    32     7     8   ar
    33     8     9   ar
    34    35    31   ar
    35    28    22   ar
    36     9     4   ar
    37    18    12   ar
    38    19    21    1
@<TRIPOS>MOLECULE
*****
 35 38 0 0 0
SMALL
GASTEIGER

@<TRIPOS>ATOM
      1 C          63.3824   84.7800   12.9290 C.3     1  UNL1        0.3254
      2 F          64.5969   84.6234   12.0627 F       1  UNL1       -0.1949
      3 F          62.0472   85.1354   13.5130 F       1  UNL1       -0.1949
      4 C          62.7347   85.6208   11.8690 C.ar    1  UNL1        0.1218
      5 C          62.1230   84.9690   10.6644 C.ar    1  UNL1        0.0208
      6 C          61.4754   85.8098    9.6043 C.ar    1  UNL1        0.0112
      7 C          61.4394   87.3024    9.7489 C.ar    1  UNL1        0.0611
      8 C          62.0511   87.9542   10.9536 C.ar    1  UNL1        0.1068
      9 N          62.6987   87.1134   12.0136 N.ar    1  UNL1       -0.2421
     10 C          60.7918   88.1432    8.6890 C.1     1  UNL1       -0.0582
     11 C          60.1441   88.9840    7.6290 C.1     1  UNL1       -0.0597
     12 C          59.4964   89.8248    6.5690 C.ar    1  UNL1        0.0420
     13 C          60.3424   90.6502    5.6454 C.ar    1  UNL1        0.0091
     14 C          59.6947   91.4909    4.5854 C.ar    1  UNL1        0.0120
     15 C          58.2010   91.5064    4.4491 C.ar    1  UNL1        0.0577
     16 CL         57.5533   92.3472    3.3891 Cl      1  UNL1       -0.0822
     17 C          57.3550   90.6810    5.3727 C.ar    1  UNL1        0.0120
     18 C          58.0027   89.8403    6.4326 C.ar    1  UNL1        0.0091
     19 O          64.6777   83.0985   15.0489 O.3     1  UNL1       -0.3755
     20 C          64.0300   83.9392   13.9890 C.3     1  UNL1        0.1932
     21 H          65.4251   82.6136   14.6652 H       1  UNL1        0.2110
     22 C          63.7507   85.0060   15.0058 C.ar    1  UNL1        0.0368
     23 C          64.4599   86.3252   14.9230 C.ar    1  UNL1        0.0028
     24 C          64.1805   87.3920   15.9399 C.ar    1  UNL1        0.0295
     25 C          63.1920   87.1396   17.0395 C.ar    1  UNL1        0.1424
     26 F          62.9127   88.2063   18.0563 F       1  UNL1       -0.2041
     27 C          62.4829   85.8204   17.1223 C.ar    1  UNL1        0.0590
     28 C          62.7622   84.7536   16.1054 C.ar    1  UNL1        0.1408
     29 F          62.0530   83.4344   16.1882 F       1  UNL1       -0.2043
     30 C          64.3094   82.8724   12.9721 C.3     1  UNL1        0.1679
     31 N          63.5229   81.5953   12.9895 N.ar    1  UNL1       -0.2078
     32 C          63.0780   80.8174   11.7866 C.ar    1  UNL1        0.2216
     33 N          62.3232   79.6132   12.2665 N.ar    1  UNL1       -0.1048
     34 N          62.3016   79.6469   13.7660 N.ar    1  UNL1       -0.0226
     35 N          63.0430   80.8719   14.2128 N.ar    1  UNL1       -0.0428
@<TRIPOS>BOND
     1    19    20    1
     2    20    30    1
     3    30    31    1
     4    31    32   ar
     5    32    33   ar
     6    33    34   ar
     7    34    35   ar
     8    20    22    1
     9    22    23   ar
    10    23    24   ar
    11    24    25   ar
    12    25    26    1
    13    25    27   ar
    14    27    28   ar
    15    28    29    1
    16    20     1    1
    17     1     2    1
    18     1     3    1
    19     1     4    1
    20     4     5   ar
    21     5     6   ar
    22     6     7   ar
    23     7    10    1
    24    10    11    3
    25    11    12    1
    26    12    13   ar
    27    13    14   ar
    28    14    15   ar
    29    15    16    1
    30    15    17   ar
    31    17    18   ar
    32     7     8   ar
    33     8     9   ar
    34    35    31   ar
    35    28    22   ar
    36     9     4   ar
    37    18    12   ar
    38    19    21    1
