@<TRIPOS>MOLECULE
*****
 37 42 0 0 0
SMALL
GASTEIGER

@<TRIPOS>ATOM
      1 C          62.3206   89.9172   13.2599 C.3     1  UNL1        0.0886
      2 C          61.6320   89.5439   11.9807 C.3     1  UNL1        0.0749
      3 C          61.8262   88.1763   11.3958 C.3     1  UNL1        0.0444
      4 C          61.1377   87.8030   10.1165 C.ar    1  UNL1       -0.0101
      5 C          60.2548   88.7972    9.4222 C.ar    1  UNL1       -0.0091
      6 C          59.5662   88.4239    8.1430 C.ar    1  UNL1       -0.0032
      7 C          59.7605   87.0563    7.5580 C.ar    1  UNL1        0.0010
      8 C          60.6433   86.0621    8.2524 C.ar    1  UNL1        0.0142
      9 C          61.3319   86.4355    9.5317 C.ar    1  UNL1        0.0436
     10 C          60.0605   90.1647   10.0070 C.3     1  UNL1        0.0954
     11 N          60.7491   90.5381   11.2863 N.3     1  UNL1       -0.2934
     12 H          60.0185   90.7967   11.9494 H       1  UNL1        0.1236
     13 N          62.2148   85.4413   10.2260 N.pl3   1  UNL1       -0.3049
     14 C          62.1269   85.2707   11.7138 C.3     1  UNL1        0.1079
     15 C          63.0097   84.2765   12.4081 C.3     1  UNL1        0.0903
     16 N          63.9805   83.4529   11.6147 N.3     1  UNL1       -0.2946
     17 C          64.0684   83.6235   10.1271 C.3     1  UNL1        0.0903
     18 C          63.1855   84.6177    9.4328 C.3     1  UNL1        0.1079
     19 H          63.7456   82.4751   11.7856 H       1  UNL1        0.1233
     20 N          63.8181   89.9855   13.3134 N.3     1  UNL1       -0.2679
     21 C          67.2564   93.5647   15.4621 C.ar    1  UNL1        0.0203
     22 C          66.5410   92.3595   15.9966 C.ar    1  UNL1        0.0985
     23 N          65.6334   91.5682   15.1022 N.ar    1  UNL1       -0.2471
     24 C          65.4411   91.9821   13.6733 C.ar    1  UNL1        0.0695
     25 C          66.1565   93.1873   13.1389 C.ar    1  UNL1       -0.0073
     26 C          67.0641   93.9786   14.0333 C.ar    1  UNL1       -0.0015
     27 C          65.9642   93.6012   11.7099 C.3     1  UNL1        0.0277
     28 C          65.0566   92.8099   10.8155 C.3     1  UNL1        0.0065
     29 C          64.3412   91.6046   11.3500 C.3     1  UNL1        0.0224
     30 C          64.5335   91.1907   12.7789 C.3     1  UNL1        0.0978
     31 C          64.6002   88.8486   13.9013 C.3     1  UNL1        0.0724
     32 C          64.0473   88.0805   15.0650 C.3     1  UNL1        0.0160
     33 C          64.1364   86.5833   15.0860 C.3     1  UNL1        0.0014
     34 C          63.5836   85.8153   16.2498 C.3     1  UNL1        0.0000
     35 C          62.9415   86.5445   17.3927 C.3     1  UNL1        0.0000
     36 C          62.8524   88.0417   17.3717 C.3     1  UNL1        0.0000
     37 C          63.4054   88.8097   16.2079 C.3     1  UNL1        0.0014
@<TRIPOS>BOND
     1    21    22   ar
     2    22    23   ar
     3    23    24   ar
     4    24    25   ar
     5    25    26   ar
     6    25    27    1
     7    27    28    1
     8    28    29    1
     9    29    30    1
    10    30    20    1
    11    20    31    1
    12    31    32    1
    13    32    33    1
    14    33    34    1
    15    34    35    1
    16    35    36    1
    17    36    37    1
    18    20     1    1
    19     2     1    1
    20     2     3    1
    21     3     4    1
    22     4     5   ar
    23     5     6   ar
    24     6     7   ar
    25     7     8   ar
    26     8     9   ar
    27     9    13    1
    28    13    14    1
    29    14    15    1
    30    15    16    1
    31    16    17    1
    32    17    18    1
    33     5    10    1
    34    10    11    1
    35    26    21   ar
    36    37    32    1
    37    11     2    1
    38    30    24    1
    39     9     4   ar
    40    18    13    1
    41    16    19    1
    42    11    12    1
@<TRIPOS>MOLECULE
*****
 37 42 0 0 0
SMALL
GASTEIGER

@<TRIPOS>ATOM
      1 C          63.0620   88.7239   11.6842 C.3     1  UNL1        0.0886
      2 C          63.5869   89.5380   12.8295 C.3     1  UNL1        0.0749
      3 C          64.6135   90.6038   12.5837 C.3     1  UNL1        0.0444
      4 C          65.1384   91.4179   13.7289 C.ar    1  UNL1       -0.0101
      5 C          64.6368   91.1662   15.1200 C.ar    1  UNL1       -0.0091
      6 C          65.1617   91.9803   16.2653 C.ar    1  UNL1       -0.0032
      7 C          66.1883   93.0461   16.0195 C.ar    1  UNL1        0.0010
      8 C          66.6899   93.2977   14.6284 C.ar    1  UNL1        0.0142
      9 C          66.1649   92.4836   13.4831 C.ar    1  UNL1        0.0436
     10 C          63.6103   90.1005   15.3658 C.3     1  UNL1        0.0954
     11 N          63.0854   89.2863   14.2205 N.3     1  UNL1       -0.2934
     12 H          62.0751   89.4255   14.1990 H       1  UNL1        0.1236
     13 N          66.6665   92.7352   12.0921 N.pl3   1  UNL1       -0.3049
     14 C          66.0359   93.8041   11.2493 C.3     1  UNL1        0.1079
     15 C          66.5375   94.0557    9.8582 C.3     1  UNL1        0.0903
     16 N          67.6696   93.2386    9.3099 N.3     1  UNL1       -0.2946
     17 C          68.3001   92.1698   10.1526 C.3     1  UNL1        0.0903
     18 C          67.7985   91.9182   11.5437 C.3     1  UNL1        0.1079
     19 H          68.4113   93.8929    9.0607 H       1  UNL1        0.1233
     20 N          62.3783   87.4146   11.9459 N.3     1  UNL1       -0.2679
     21 C          64.0771   82.5819   10.2111 C.ar    1  UNL1        0.0203
     22 C          63.3202   83.7088    9.5731 C.ar    1  UNL1        0.0985
     23 N          63.0063   84.9441   10.3640 N.ar    1  UNL1       -0.2471
     24 C          63.4491   85.0524   11.7930 C.ar    1  UNL1        0.0695
     25 C          64.2060   83.9255   12.4311 C.ar    1  UNL1       -0.0073
     26 C          64.5200   82.6902   11.6401 C.ar    1  UNL1       -0.0015
     27 C          64.6489   84.0337   13.8601 C.3     1  UNL1        0.0277
     28 C          64.3349   85.2690   14.6511 C.3     1  UNL1        0.0065
     29 C          63.5780   86.3960   14.0130 C.3     1  UNL1        0.0224
     30 C          63.1352   86.2876   12.5840 C.3     1  UNL1        0.0978
     31 C          60.9378   87.2323   11.5695 C.3     1  UNL1        0.0724
     32 C          60.4882   87.5116   10.1660 C.3     1  UNL1        0.0160
     33 C          60.3029   86.3803    9.1987 C.3     1  UNL1        0.0014
     34 C          59.8533   86.6596    7.7952 C.3     1  UNL1        0.0000
     35 C          59.5890   88.0703    7.3590 C.3     1  UNL1        0.0000
     36 C          59.7743   89.2016    8.3264 C.3     1  UNL1        0.0000
     37 C          60.2239   88.9223    9.7299 C.3     1  UNL1        0.0014
@<TRIPOS>BOND
     1    21    22   ar
     2    22    23   ar
     3    23    24   ar
     4    24    25   ar
     5    25    26   ar
     6    25    27    1
     7    27    28    1
     8    28    29    1
     9    29    30    1
    10    30    20    1
    11    20    31    1
    12    31    32    1
    13    32    33    1
    14    33    34    1
    15    34    35    1
    16    35    36    1
    17    36    37    1
    18    20     1    1
    19     2     1    1
    20     2     3    1
    21     3     4    1
    22     4     5   ar
    23     5     6   ar
    24     6     7   ar
    25     7     8   ar
    26     8     9   ar
    27     9    13    1
    28    13    14    1
    29    14    15    1
    30    15    16    1
    31    16    17    1
    32    17    18    1
    33     5    10    1
    34    10    11    1
    35    26    21   ar
    36    37    32    1
    37    11     2    1
    38    30    24    1
    39     9     4   ar
    40    18    13    1
    41    16    19    1
    42    11    12    1
@<TRIPOS>MOLECULE
*****
 37 42 0 0 0
SMALL
GASTEIGER

@<TRIPOS>ATOM
      1 C          64.4621   89.4039   13.1096 C.3     1  UNL1        0.0886
      2 C          63.2756   89.3077   12.1970 C.3     1  UNL1        0.0749
      3 C          62.9342   88.0002   11.5458 C.3     1  UNL1        0.0444
      4 C          61.7477   87.9040   10.6332 C.ar    1  UNL1       -0.0101
      5 C          60.9025   89.1153   10.3717 C.ar    1  UNL1       -0.0091
      6 C          59.7160   89.0191    9.4591 C.ar    1  UNL1       -0.0032
      7 C          59.3746   87.7116    8.8080 C.ar    1  UNL1        0.0010
      8 C          60.2198   86.5003    9.0695 C.ar    1  UNL1        0.0142
      9 C          61.4063   86.5965    9.9822 C.ar    1  UNL1        0.0436
     10 C          61.2438   90.4228   11.0228 C.3     1  UNL1        0.0954
     11 N          62.4304   90.5190   11.9354 N.3     1  UNL1       -0.2934
     12 H          62.0811   90.8353   12.8401 H       1  UNL1        0.1236
     13 N          62.2515   85.3852   10.2437 N.pl3   1  UNL1       -0.3049
     14 C          62.2019   84.7109   11.5828 C.3     1  UNL1        0.1079
     15 C          63.0471   83.4996   11.8443 C.3     1  UNL1        0.0903
     16 N          63.9419   82.9626   10.7668 N.3     1  UNL1       -0.2946
     17 C          63.9915   83.6368    9.4278 C.3     1  UNL1        0.0903
     18 C          63.1463   84.8481    9.1663 C.3     1  UNL1        0.1079
     19 H          63.6558   81.9978   10.6002 H       1  UNL1        0.1233
     20 N          64.4103   90.2941   14.3158 N.3     1  UNL1       -0.2679
     21 C          65.8726   94.0463   10.7057 C.ar    1  UNL1        0.0203
     22 C          65.0105   92.8206   10.6406 C.ar    1  UNL1        0.0985
     23 N          64.8104   91.9784   11.8657 N.ar    1  UNL1       -0.2471
     24 C          65.4725   92.3620   13.1558 C.ar    1  UNL1        0.0695
     25 C          66.3347   93.5877   13.2209 C.ar    1  UNL1       -0.0073
     26 C          66.5347   94.4298   11.9958 C.ar    1  UNL1       -0.0015
     27 C          66.9969   93.9713   14.5110 C.3     1  UNL1        0.0277
     28 C          66.7968   93.1291   15.7361 C.3     1  UNL1        0.0065
     29 C          65.9346   91.9034   15.6710 C.3     1  UNL1        0.0224
     30 C          65.2725   91.5198   14.3809 C.3     1  UNL1        0.0978
     31 C          63.4964   89.9585   15.4569 C.3     1  UNL1        0.0724
     32 C          63.4414   88.5562   15.9863 C.3     1  UNL1        0.0160
     33 C          64.0611   87.4350   15.2059 C.3     1  UNL1        0.0014
     34 C          64.0061   86.0327   15.7354 C.3     1  UNL1        0.0000
     35 C          63.3314   85.7514   17.0453 C.3     1  UNL1        0.0000
     36 C          62.7117   86.8726   17.8257 C.3     1  UNL1        0.0000
     37 C          62.7667   88.2750   17.2962 C.3     1  UNL1        0.0014
@<TRIPOS>BOND
     1    21    22   ar
     2    22    23   ar
     3    23    24   ar
     4    24    25   ar
     5    25    26   ar
     6    25    27    1
     7    27    28    1
     8    28    29    1
     9    29    30    1
    10    30    20    1
    11    20    31    1
    12    31    32    1
    13    32    33    1
    14    33    34    1
    15    34    35    1
    16    35    36    1
    17    36    37    1
    18    20     1    1
    19     2     1    1
    20     2     3    1
    21     3     4    1
    22     4     5   ar
    23     5     6   ar
    24     6     7   ar
    25     7     8   ar
    26     8     9   ar
    27     9    13    1
    28    13    14    1
    29    14    15    1
    30    15    16    1
    31    16    17    1
    32    17    18    1
    33     5    10    1
    34    10    11    1
    35    26    21   ar
    36    37    32    1
    37    11     2    1
    38    30    24    1
    39     9     4   ar
    40    18    13    1
    41    16    19    1
    42    11    12    1
@<TRIPOS>MOLECULE
*****
 37 42 0 0 0
SMALL
GASTEIGER

@<TRIPOS>ATOM
      1 C          64.3351   89.0934   13.5157 C.3     1  UNL1        0.0886
      2 C          63.2708   89.1649   12.4611 C.3     1  UNL1        0.0749
      3 C          62.9229   87.9435   11.6627 C.3     1  UNL1        0.0444
      4 C          61.8586   88.0149   10.6081 C.ar    1  UNL1       -0.0101
      5 C          61.1423   89.3077   10.3518 C.ar    1  UNL1       -0.0091
      6 C          60.0781   89.3791    9.2971 C.ar    1  UNL1       -0.0032
      7 C          59.7301   88.1577    8.4988 C.ar    1  UNL1        0.0010
      8 C          60.4464   86.8650    8.7552 C.ar    1  UNL1        0.0142
      9 C          61.5107   86.7936    9.8098 C.ar    1  UNL1        0.0436
     10 C          61.4903   90.5290   11.1500 C.3     1  UNL1        0.0954
     11 N          62.5545   90.4576   12.2047 N.3     1  UNL1       -0.2934
     12 H          62.1162   90.7308   13.0843 H       1  UNL1        0.1236
     13 N          62.2270   85.5009   10.0662 N.pl3   1  UNL1       -0.3049
     14 C          62.0017   84.7606   11.3513 C.3     1  UNL1        0.1079
     15 C          62.7180   83.4679   11.6076 C.3     1  UNL1        0.0903
     16 N          63.6596   82.9154   10.5789 N.3     1  UNL1       -0.2946
     17 C          63.8849   83.6556    9.2939 C.3     1  UNL1        0.0903
     18 C          63.1686   84.9483    9.0376 C.3     1  UNL1        0.1079
     19 H          63.3119   81.9897   10.3284 H       1  UNL1        0.1233
     20 N          64.0027   89.4251   14.9403 N.3     1  UNL1       -0.2679
     21 C          64.3301   84.0280   14.8209 C.ar    1  UNL1        0.0203
     22 C          64.7410   85.1161   13.8737 C.ar    1  UNL1        0.0985
     23 N          64.4949   86.5525   14.2293 N.ar    1  UNL1       -0.2471
     24 C          63.8379   86.9007   15.5319 C.ar    1  UNL1        0.0695
     25 C          63.4269   85.8125   16.4791 C.ar    1  UNL1       -0.0073
     26 C          63.6730   84.3762   16.1235 C.ar    1  UNL1       -0.0015
     27 C          62.7698   86.1607   17.7818 C.3     1  UNL1        0.0277
     28 C          62.5237   87.5970   18.1373 C.3     1  UNL1        0.0065
     29 C          62.9347   88.6852   17.1901 C.3     1  UNL1        0.0224
     30 C          63.5917   88.3370   15.8875 C.3     1  UNL1        0.0978
     31 C          64.0812   90.8449   15.4178 C.3     1  UNL1        0.0724
     32 C          65.3344   91.6404   15.2021 C.3     1  UNL1        0.0160
     33 C          65.9090   91.7755   13.8232 C.3     1  UNL1        0.0014
     34 C          67.1622   92.5711   13.6075 C.3     1  UNL1        0.0000
     35 C          67.8409   93.2316   14.7708 C.3     1  UNL1        0.0000
     36 C          67.2663   93.0965   16.1498 C.3     1  UNL1        0.0000
     37 C          66.0130   92.3009   16.3654 C.3     1  UNL1        0.0014
@<TRIPOS>BOND
     1    21    22   ar
     2    22    23   ar
     3    23    24   ar
     4    24    25   ar
     5    25    26   ar
     6    25    27    1
     7    27    28    1
     8    28    29    1
     9    29    30    1
    10    30    20    1
    11    20    31    1
    12    31    32    1
    13    32    33    1
    14    33    34    1
    15    34    35    1
    16    35    36    1
    17    36    37    1
    18    20     1    1
    19     2     1    1
    20     2     3    1
    21     3     4    1
    22     4     5   ar
    23     5     6   ar
    24     6     7   ar
    25     7     8   ar
    26     8     9   ar
    27     9    13    1
    28    13    14    1
    29    14    15    1
    30    15    16    1
    31    16    17    1
    32    17    18    1
    33     5    10    1
    34    10    11    1
    35    26    21   ar
    36    37    32    1
    37    11     2    1
    38    30    24    1
    39     9     4   ar
    40    18    13    1
    41    16    19    1
    42    11    12    1
@<TRIPOS>MOLECULE
*****
 37 42 0 0 0
SMALL
GASTEIGER

@<TRIPOS>ATOM
      1 C          63.2107   88.7007   11.3269 C.3     1  UNL1        0.0886
      2 C          63.5310   89.4428   12.5904 C.3     1  UNL1        0.0749
      3 C          64.5604   90.5338   12.5791 C.3     1  UNL1        0.0444
      4 C          64.8808   91.2759   13.8426 C.ar    1  UNL1       -0.0101
      5 C          64.1717   90.9271   15.1176 C.ar    1  UNL1       -0.0091
      6 C          64.4920   91.6692   16.3811 C.ar    1  UNL1       -0.0032
      7 C          65.5215   92.7602   16.3698 C.ar    1  UNL1        0.0010
      8 C          66.2305   93.1090   15.0948 C.ar    1  UNL1        0.0142
      9 C          65.9101   92.3669   13.8312 C.ar    1  UNL1        0.0436
     10 C          63.1423   89.8361   15.1290 C.3     1  UNL1        0.0954
     11 N          62.8220   89.0939   13.8654 N.3     1  UNL1       -0.2934
     12 H          61.8250   89.2231   13.6927 H       1  UNL1        0.1236
     13 N          66.6192   92.7157   12.5562 N.pl3   1  UNL1       -0.3049
     14 C          67.7457   91.8555   12.0650 C.3     1  UNL1        0.1079
     15 C          68.4547   92.2044   10.7900 C.3     1  UNL1        0.0903
     16 N          68.0373   93.4134   10.0063 N.3     1  UNL1       -0.2946
     17 C          66.9109   94.2735   10.4975 C.3     1  UNL1        0.0903
     18 C          66.2018   93.9246   11.7725 C.3     1  UNL1        0.1079
     19 H          67.7737   93.0854    9.0771 H       1  UNL1        0.1233
     20 N          62.2505   87.5486   11.3566 N.3     1  UNL1       -0.2679
     21 C          64.6523   84.8517   15.3824 C.ar    1  UNL1        0.0203
     22 C          64.1384   86.2526   15.2303 C.ar    1  UNL1        0.0985
     23 N          63.5091   86.6846   13.9391 N.ar    1  UNL1       -0.2471
     24 C          63.3937   85.7157   12.7999 C.ar    1  UNL1        0.0695
     25 C          63.9076   84.3147   12.9520 C.ar    1  UNL1       -0.0073
     26 C          64.5370   83.8827   14.2432 C.ar    1  UNL1       -0.0015
     27 C          63.7923   83.3457   11.8128 C.3     1  UNL1        0.0277
     28 C          63.1630   83.7777   10.5215 C.3     1  UNL1        0.0065
     29 C          62.6490   85.1787   10.3695 C.3     1  UNL1        0.0224
     30 C          62.7644   86.1477   11.5086 C.3     1  UNL1        0.0978
     31 C          60.7764   87.7976   11.2342 C.3     1  UNL1        0.0724
     32 C          60.1555   87.9743    9.8802 C.3     1  UNL1        0.0160
     33 C          59.5196   86.8051    9.1883 C.3     1  UNL1        0.0014
     34 C          58.8987   86.9817    7.8344 C.3     1  UNL1        0.0000
     35 C          58.9136   88.3276    7.1722 C.3     1  UNL1        0.0000
     36 C          59.5495   89.4968    7.8641 C.3     1  UNL1        0.0000
     37 C          60.1704   89.3201    9.2181 C.3     1  UNL1        0.0014
@<TRIPOS>BOND
     1    21    22   ar
     2    22    23   ar
     3    23    24   ar
     4    24    25   ar
     5    25    26   ar
     6    25    27    1
     7    27    28    1
     8    28    29    1
     9    29    30    1
    10    30    20    1
    11    20    31    1
    12    31    32    1
    13    32    33    1
    14    33    34    1
    15    34    35    1
    16    35    36    1
    17    36    37    1
    18    20     1    1
    19     2     1    1
    20     2     3    1
    21     3     4    1
    22     4     5   ar
    23     5     6   ar
    24     6     7   ar
    25     7     8   ar
    26     8     9   ar
    27     9    13    1
    28    13    14    1
    29    14    15    1
    30    15    16    1
    31    16    17    1
    32    17    18    1
    33     5    10    1
    34    10    11    1
    35    26    21   ar
    36    37    32    1
    37    11     2    1
    38    30    24    1
    39     9     4   ar
    40    18    13    1
    41    16    19    1
    42    11    12    1
@<TRIPOS>MOLECULE
*****
 37 42 0 0 0
SMALL
GASTEIGER

@<TRIPOS>ATOM
      1 C          62.7457   89.0875   10.8704 C.3     1  UNL1        0.0886
      2 C          63.2944   89.7383   12.1054 C.3     1  UNL1        0.0749
      3 C          64.3566   90.7911   11.9896 C.3     1  UNL1        0.0444
      4 C          64.9053   91.4420   13.2246 C.ar    1  UNL1       -0.0101
      5 C          64.3917   91.0401   14.5755 C.ar    1  UNL1       -0.0091
      6 C          64.9404   91.6910   15.8105 C.ar    1  UNL1       -0.0032
      7 C          66.0027   92.7438   15.6947 C.ar    1  UNL1        0.0010
      8 C          66.5162   93.1456   14.3439 C.ar    1  UNL1        0.0142
      9 C          65.9675   92.4947   13.1088 C.ar    1  UNL1        0.0436
     10 C          63.3295   89.9874   14.6913 C.3     1  UNL1        0.0954
     11 N          62.7808   89.3365   13.4562 N.3     1  UNL1       -0.2934
     12 H          61.7759   89.5111   13.4531 H       1  UNL1        0.1236
     13 N          66.4811   92.8966   11.7580 N.pl3   1  UNL1       -0.3049
     14 C          67.5697   92.0999   11.1020 C.3     1  UNL1        0.1079
     15 C          68.0833   92.5018    9.7512 C.3     1  UNL1        0.0903
     16 N          67.5082   93.7003    9.0563 N.3     1  UNL1       -0.2946
     17 C          66.4195   94.4969    9.7122 C.3     1  UNL1        0.0903
     18 C          65.9060   94.0950   11.0630 C.3     1  UNL1        0.1079
     19 H          67.1372   93.3735    8.1641 H       1  UNL1        0.1233
     20 N          61.8541   87.8869   10.9882 N.3     1  UNL1       -0.2679
     21 C          62.5168   84.5397    6.7921 C.ar    1  UNL1        0.0203
     22 C          63.3849   84.9454    7.9461 C.ar    1  UNL1        0.0985
     23 N          62.8747   85.9259    8.9602 N.ar    1  UNL1       -0.2471
     24 C          61.4963   86.5008    8.8202 C.ar    1  UNL1        0.0695
     25 C          60.6282   86.0951    7.6662 C.ar    1  UNL1       -0.0073
     26 C          61.1385   85.1146    6.6521 C.ar    1  UNL1       -0.0015
     27 C          59.2498   86.6699    7.5261 C.3     1  UNL1        0.0277
     28 C          58.7395   87.6504    8.5401 C.3     1  UNL1        0.0065
     29 C          59.6077   88.0561    9.6942 C.3     1  UNL1        0.0224
     30 C          60.9860   87.4813    9.8342 C.3     1  UNL1        0.0978
     31 C          61.8307   87.0921   12.2601 C.3     1  UNL1        0.0724
     32 C          62.6143   85.8172   12.3623 C.3     1  UNL1        0.0160
     33 C          62.2801   84.6579   11.4710 C.3     1  UNL1        0.0014
     34 C          63.0637   83.3830   11.5732 C.3     1  UNL1        0.0000
     35 C          64.1815   83.2673   12.5668 C.3     1  UNL1        0.0000
     36 C          64.5157   84.4265   13.4581 C.3     1  UNL1        0.0000
     37 C          63.7321   85.7015   13.3559 C.3     1  UNL1        0.0014
@<TRIPOS>BOND
     1    21    22   ar
     2    22    23   ar
     3    23    24   ar
     4    24    25   ar
     5    25    26   ar
     6    25    27    1
     7    27    28    1
     8    28    29    1
     9    29    30    1
    10    30    20    1
    11    20    31    1
    12    31    32    1
    13    32    33    1
    14    33    34    1
    15    34    35    1
    16    35    36    1
    17    36    37    1
    18    20     1    1
    19     2     1    1
    20     2     3    1
    21     3     4    1
    22     4     5   ar
    23     5     6   ar
    24     6     7   ar
    25     7     8   ar
    26     8     9   ar
    27     9    13    1
    28    13    14    1
    29    14    15    1
    30    15    16    1
    31    16    17    1
    32    17    18    1
    33     5    10    1
    34    10    11    1
    35    26    21   ar
    36    37    32    1
    37    11     2    1
    38    30    24    1
    39     9     4   ar
    40    18    13    1
    41    16    19    1
    42    11    12    1
@<TRIPOS>MOLECULE
*****
 37 42 0 0 0
SMALL
GASTEIGER

@<TRIPOS>ATOM
      1 C          63.9490   91.5973   12.2950 C.3     1  UNL1        0.0886
      2 C          63.1745   90.5743   11.5181 C.3     1  UNL1        0.0749
      3 C          63.2126   89.1326   11.9306 C.3     1  UNL1        0.0444
      4 C          62.4382   88.1095   11.1537 C.ar    1  UNL1       -0.0101
      5 C          61.6256   88.5281    9.9644 C.ar    1  UNL1       -0.0091
      6 C          60.8511   87.5051    9.1875 C.ar    1  UNL1       -0.0032
      7 C          60.8892   86.0633    9.6000 C.ar    1  UNL1        0.0010
      8 C          61.7018   85.6447   10.7893 C.ar    1  UNL1        0.0142
      9 C          62.4763   86.6679   11.5662 C.ar    1  UNL1        0.0436
     10 C          61.5875   89.9698    9.5519 C.3     1  UNL1        0.0954
     11 N          62.3619   90.9929   10.3288 N.3     1  UNL1       -0.2934
     12 H          61.6879   91.6828   10.6607 H       1  UNL1        0.1236
     13 N          63.2889   86.2493   12.7555 N.pl3   1  UNL1       -0.3049
     14 C          63.5839   84.7971   12.9888 C.3     1  UNL1        0.1079
     15 C          64.3965   84.3786   14.1781 C.3     1  UNL1        0.0903
     16 N          64.9141   85.4121   15.1341 N.3     1  UNL1       -0.2946
     17 C          64.6191   86.8642   14.9008 C.3     1  UNL1        0.0903
     18 C          63.8065   87.2828   13.7115 C.3     1  UNL1        0.1079
     19 H          65.9295   85.3167   15.1495 H       1  UNL1        0.1233
     20 N          65.1045   92.3082   11.6550 N.3     1  UNL1       -0.2679
     21 C          67.2633   92.5716   16.6068 C.ar    1  UNL1        0.0203
     22 C          65.8766   92.7560   16.0656 C.ar    1  UNL1        0.0985
     23 N          65.6192   92.6068   14.5954 N.ar    1  UNL1       -0.2471
     24 C          66.7486   92.2731   13.6664 C.ar    1  UNL1        0.0695
     25 C          68.1353   92.0887   14.2076 C.ar    1  UNL1       -0.0073
     26 C          68.3927   92.2380   15.6778 C.ar    1  UNL1       -0.0015
     27 C          69.2648   91.7551   13.2785 C.3     1  UNL1        0.0277
     28 C          69.0075   91.6058   11.8083 C.3     1  UNL1        0.0065
     29 C          67.6206   91.7902   11.2672 C.3     1  UNL1        0.0224
     30 C          66.4913   92.1238   12.1962 C.3     1  UNL1        0.0978
     31 C          64.8732   93.2035   10.4739 C.3     1  UNL1        0.0724
     32 C          65.7387   94.4110   10.2672 C.3     1  UNL1        0.0160
     33 C          66.7360   94.4361    9.1470 C.3     1  UNL1        0.0014
     34 C          67.6015   95.6436    8.9402 C.3     1  UNL1        0.0000
     35 C          67.4698   96.8261    9.8537 C.3     1  UNL1        0.0000
     36 C          66.4725   96.8010   10.9739 C.3     1  UNL1        0.0000
     37 C          65.6070   95.5934   11.1806 C.3     1  UNL1        0.0014
@<TRIPOS>BOND
     1    21    22   ar
     2    22    23   ar
     3    23    24   ar
     4    24    25   ar
     5    25    26   ar
     6    25    27    1
     7    27    28    1
     8    28    29    1
     9    29    30    1
    10    30    20    1
    11    20    31    1
    12    31    32    1
    13    32    33    1
    14    33    34    1
    15    34    35    1
    16    35    36    1
    17    36    37    1
    18    20     1    1
    19     2     1    1
    20     2     3    1
    21     3     4    1
    22     4     5   ar
    23     5     6   ar
    24     6     7   ar
    25     7     8   ar
    26     8     9   ar
    27     9    13    1
    28    13    14    1
    29    14    15    1
    30    15    16    1
    31    16    17    1
    32    17    18    1
    33     5    10    1
    34    10    11    1
    35    26    21   ar
    36    37    32    1
    37    11     2    1
    38    30    24    1
    39     9     4   ar
    40    18    13    1
    41    16    19    1
    42    11    12    1
@<TRIPOS>MOLECULE
*****
 37 42 0 0 0
SMALL
GASTEIGER

@<TRIPOS>ATOM
      1 C          64.1664   91.6742   11.9500 C.3     1  UNL1        0.0886
      2 C          64.1607   90.3542   12.6624 C.3     1  UNL1        0.0749
      3 C          63.4380   89.1829   12.0658 C.3     1  UNL1        0.0444
      4 C          63.4324   87.8630   12.7783 C.ar    1  UNL1       -0.0101
      5 C          64.1494   87.7142   14.0874 C.ar    1  UNL1       -0.0091
      6 C          64.1438   86.3943   14.7998 C.ar    1  UNL1       -0.0032
      7 C          63.4211   85.2230   14.2032 C.ar    1  UNL1        0.0010
      8 C          62.7040   85.3718   12.8941 C.ar    1  UNL1        0.0142
      9 C          62.7097   86.6918   12.1816 C.ar    1  UNL1        0.0436
     10 C          64.8721   88.8854   14.6840 C.3     1  UNL1        0.0954
     11 N          64.8778   90.2054   13.9715 N.3     1  UNL1       -0.2934
     12 H          65.8547   90.4438   13.8009 H       1  UNL1        0.1236
     13 N          61.9927   86.8406   10.8725 N.pl3   1  UNL1       -0.3049
     14 C          62.4130   86.0195    9.6896 C.3     1  UNL1        0.1079
     15 C          61.6960   86.1683    8.3805 C.3     1  UNL1        0.0903
     16 N          60.5586   87.1381    8.2544 N.3     1  UNL1       -0.2946
     17 C          60.1383   87.9591    9.4372 C.3     1  UNL1        0.0903
     18 C          60.8553   87.8103   10.7463 C.3     1  UNL1        0.1079
     19 H          59.7425   86.5988    7.9653 H       1  UNL1        0.1233
     20 N          65.3214   92.6153   12.1237 N.3     1  UNL1       -0.2679
     21 C          66.3041   96.7167    8.7379 C.ar    1  UNL1        0.0203
     22 C          65.3332   96.5054    9.8616 C.ar    1  UNL1        0.0985
     23 N          65.3293   95.2087   10.6157 N.ar    1  UNL1       -0.2471
     24 C          66.2962   94.1233   10.2459 C.ar    1  UNL1        0.0695
     25 C          67.2671   94.3345    9.1222 C.ar    1  UNL1       -0.0073
     26 C          67.2710   95.6312    8.3682 C.ar    1  UNL1       -0.0015
     27 C          68.2341   93.2490    8.7525 C.3     1  UNL1        0.0277
     28 C          68.2302   91.9523    9.5065 C.3     1  UNL1        0.0065
     29 C          67.2592   91.7411   10.6303 C.3     1  UNL1        0.0224
     30 C          66.2923   92.8265   11.0000 C.3     1  UNL1        0.0978
     31 C          65.5056   93.3452   13.4211 C.3     1  UNL1        0.0724
     32 C          66.6297   92.9691   14.3402 C.3     1  UNL1        0.0160
     33 C          68.0044   92.7355   13.7873 C.3     1  UNL1        0.0014
     34 C          69.1286   92.3595   14.7064 C.3     1  UNL1        0.0000
     35 C          68.8781   92.2170   16.1785 C.3     1  UNL1        0.0000
     36 C          67.5034   92.4505   16.7314 C.3     1  UNL1        0.0000
     37 C          66.3792   92.8266   15.8122 C.3     1  UNL1        0.0014
@<TRIPOS>BOND
     1    21    22   ar
     2    22    23   ar
     3    23    24   ar
     4    24    25   ar
     5    25    26   ar
     6    25    27    1
     7    27    28    1
     8    28    29    1
     9    29    30    1
    10    30    20    1
    11    20    31    1
    12    31    32    1
    13    32    33    1
    14    33    34    1
    15    34    35    1
    16    35    36    1
    17    36    37    1
    18    20     1    1
    19     2     1    1
    20     2     3    1
    21     3     4    1
    22     4     5   ar
    23     5     6   ar
    24     6     7   ar
    25     7     8   ar
    26     8     9   ar
    27     9    13    1
    28    13    14    1
    29    14    15    1
    30    15    16    1
    31    16    17    1
    32    17    18    1
    33     5    10    1
    34    10    11    1
    35    26    21   ar
    36    37    32    1
    37    11     2    1
    38    30    24    1
    39     9     4   ar
    40    18    13    1
    41    16    19    1
    42    11    12    1
@<TRIPOS>MOLECULE
*****
 37 42 0 0 0
SMALL
GASTEIGER

@<TRIPOS>ATOM
      1 C          64.1009   84.9922   13.7317 C.3     1  UNL1        0.0886
      2 C          63.7113   84.8595   12.2893 C.3     1  UNL1        0.0749
      3 C          62.8684   85.9168   11.6398 C.3     1  UNL1        0.0444
      4 C          62.4788   85.7841   10.1974 C.ar    1  UNL1       -0.0101
      5 C          62.9320   84.5942    9.4045 C.ar    1  UNL1       -0.0091
      6 C          62.5423   84.4616    7.9621 C.ar    1  UNL1       -0.0032
      7 C          61.6994   85.5188    7.3125 C.ar    1  UNL1        0.0010
      8 C          61.2463   86.7087    8.1055 C.ar    1  UNL1        0.0142
      9 C          61.6359   86.8414    9.5479 C.ar    1  UNL1        0.0436
     10 C          63.7748   83.5370   10.0539 C.3     1  UNL1        0.0954
     11 N          64.1645   83.6696   11.4964 N.3     1  UNL1       -0.2934
     12 H          65.1840   83.6660   11.5275 H       1  UNL1        0.1236
     13 N          61.1828   88.0313   10.3409 N.pl3   1  UNL1       -0.3049
     14 C          62.0030   89.2872   10.3438 C.3     1  UNL1        0.1079
     15 C          61.5499   90.4771   11.1367 C.3     1  UNL1        0.0903
     16 N          60.2764   90.4111   11.9267 N.3     1  UNL1       -0.2946
     17 C          59.4562   89.1553   11.9237 C.3     1  UNL1        0.0903
     18 C          59.9094   87.9654   11.1308 C.3     1  UNL1        0.1079
     19 H          59.6743   91.1568   11.5776 H       1  UNL1        0.1233
     20 N          63.0424   85.0342   14.7938 N.3     1  UNL1       -0.2679
     21 C          64.0763   90.3379   14.5665 C.ar    1  UNL1        0.0203
     22 C          64.0768   89.2337   13.5513 C.ar    1  UNL1        0.0985
     23 N          63.7320   87.8339   13.9654 N.ar    1  UNL1       -0.2471
     24 C          63.3868   87.5381   15.3949 C.ar    1  UNL1        0.0695
     25 C          63.3864   88.6423   16.4101 C.ar    1  UNL1       -0.0073
     26 C          63.7311   90.0421   15.9960 C.ar    1  UNL1       -0.0015
     27 C          63.0411   88.3466   17.8397 C.3     1  UNL1        0.0277
     28 C          62.6964   86.9467   18.2538 C.3     1  UNL1        0.0065
     29 C          62.6968   85.8426   17.2385 C.3     1  UNL1        0.0224
     30 C          63.0420   86.1383   15.8090 C.3     1  UNL1        0.0978
     31 C          61.9843   83.9719   14.8405 C.3     1  UNL1        0.0724
     32 C          62.3088   82.5709   14.4141 C.3     1  UNL1        0.0160
     33 C          63.7381   82.1220   14.3383 C.3     1  UNL1        0.0014
     34 C          64.0625   80.7210   13.9120 C.3     1  UNL1        0.0000
     35 C          62.9577   79.7688   13.5615 C.3     1  UNL1        0.0000
     36 C          61.5285   80.2177   13.6373 C.3     1  UNL1        0.0000
     37 C          61.2040   81.6188   14.0636 C.3     1  UNL1        0.0014
@<TRIPOS>BOND
     1    21    22   ar
     2    22    23   ar
     3    23    24   ar
     4    24    25   ar
     5    25    26   ar
     6    25    27    1
     7    27    28    1
     8    28    29    1
     9    29    30    1
    10    30    20    1
    11    20    31    1
    12    31    32    1
    13    32    33    1
    14    33    34    1
    15    34    35    1
    16    35    36    1
    17    36    37    1
    18    20     1    1
    19     2     1    1
    20     2     3    1
    21     3     4    1
    22     4     5   ar
    23     5     6   ar
    24     6     7   ar
    25     7     8   ar
    26     8     9   ar
    27     9    13    1
    28    13    14    1
    29    14    15    1
    30    15    16    1
    31    16    17    1
    32    17    18    1
    33     5    10    1
    34    10    11    1
    35    26    21   ar
    36    37    32    1
    37    11     2    1
    38    30    24    1
    39     9     4   ar
    40    18    13    1
    41    16    19    1
    42    11    12    1
