@<TRIPOS>MOLECULE
*****
 24 28 0 0 0
SMALL
GASTEIGER

@<TRIPOS>ATOM
      1 C          62.5933   89.5697   12.5858 C.3     1  UNL1        0.1284
      2 N          61.2160   89.9481   13.0439 N.3     1  UNL1       -0.3150
      3 H          61.1310   90.9644   13.0619 H       1  UNL1        0.1192
      4 H          61.0551   89.5768   13.9802 H       1  UNL1        0.1192
      5 C          63.5888   90.6375   12.2409 C.3     1  UNL1        0.0214
      6 C          64.5362   91.1457   13.2868 C.3     1  UNL1        0.0018
      7 C          65.5316   92.2134   12.9419 C.3     1  UNL1        0.0001
      8 C          65.5796   92.7729   11.5510 C.3     1  UNL1        0.0000
      9 C          64.6323   92.2647   10.5050 C.3     1  UNL1        0.0001
     10 C          63.9689   90.6158   13.2708 C.3     1  UNL1        0.0000
     11 C          64.4881   90.5862   14.6778 C.3     1  UNL1        0.0001
     12 C          65.4836   91.6539   14.3328 C.3     1  UNL1        0.0000
     13 C          63.5407   90.0780   13.6318 C.3     1  UNL1        0.0018
     14 C          63.6368   91.1970   10.8500 C.3     1  UNL1        0.0018
     15 C          61.3646   87.7173   10.3782 C.3     1  UNL1        0.1672
     16 C          61.0294   86.5404    9.5105 C.3     1  UNL1        0.0372
     17 C          61.8226   85.3642    9.9980 C.3     1  UNL1        0.0226
     18 C          62.7253   84.3916   10.6974 C.3     1  UNL1        0.0216
     19 C          62.6479   85.8141   11.1669 C.3     1  UNL1        0.0764
     20 N          62.3649   87.2683   11.4019 N.am    1  UNL1       -0.2691
     21 C          62.9751   88.1235   12.4726 C.2     1  UNL1        0.2403
     22 O          63.9670   87.5326   13.4301 O.2     1  UNL1       -0.2734
     23 N          60.2331   90.4829   10.1127 N.1     1  UNL1       -0.1942
     24 C          60.7989   89.1001   10.2455 C.1     1  UNL1        0.0925
@<TRIPOS>BOND
     1    23    24    3
     2    15    24    1
     3    15    16    1
     4    17    16    1
     5    17    18    1
     6    19    18    1
     7    19    20    1
     8    20    21   am
     9    21    22    2
    10    21     1    1
    11     1     2    1
    12     1     5    1
    13     5     6    1
    14     6     7    1
    15     7     8    1
    16     8     9    1
    17     9    10    1
    18    10    11    1
    19    11    12    1
    20    11    13    1
    21     9    14    1
    22    20    15    1
    23    13     5    1
    24    19    17    1
    25    14     5    1
    26    12     7    1
    27     2     3    1
    28     2     4    1
@<TRIPOS>MOLECULE
*****
 24 28 0 0 0
SMALL
GASTEIGER

@<TRIPOS>ATOM
      1 C          61.8939   87.1679   11.3929 C.3     1  UNL1        0.1284
      2 N          60.4147   87.3403   11.5724 N.3     1  UNL1       -0.3150
      3 H          59.9223   86.6116   11.0558 H       1  UNL1        0.1192
      4 H          60.1339   88.2556   11.2204 H       1  UNL1        0.1192
      5 C          62.4212   86.0445   10.5503 C.3     1  UNL1        0.0214
      6 C          62.7907   84.7381   11.1881 C.3     1  UNL1        0.0018
      7 C          63.3180   83.6148   10.3455 C.3     1  UNL1        0.0001
      8 C          63.4758   83.7978    8.8651 C.3     1  UNL1        0.0000
      9 C          63.1063   85.1042    8.2273 C.3     1  UNL1        0.0001
     10 C          62.5107   85.4150   11.4456 C.3     1  UNL1        0.0000
     11 C          62.6330   84.5551   12.6685 C.3     1  UNL1        0.0001
     12 C          63.1603   83.4317   11.8259 C.3     1  UNL1        0.0000
     13 C          62.2635   85.8614   12.0307 C.3     1  UNL1        0.0018
     14 C          62.5790   86.2275    9.0699 C.3     1  UNL1        0.0018
     15 C          62.3499   90.0654   10.2926 C.3     1  UNL1        0.1672
     16 C          62.8375   91.4708   10.0990 C.3     1  UNL1        0.0372
     17 C          63.8262   91.7722   11.1861 C.3     1  UNL1        0.0226
     18 C          64.7534   91.7803   12.3652 C.3     1  UNL1        0.0216
     19 C          63.9496   90.5533   12.0515 C.3     1  UNL1        0.0764
     20 N          63.0373   89.4984   11.4993 N.am    1  UNL1       -0.2691
     21 C          62.8458   88.1188   12.0560 C.2     1  UNL1        0.2403
     22 O          63.6062   87.6900   13.2758 O.2     1  UNL1       -0.2734
     23 N          60.3512   88.6393    8.5689 N.1     1  UNL1       -0.1942
     24 C          61.3506   89.3523    9.4307 C.1     1  UNL1        0.0925
@<TRIPOS>BOND
     1    23    24    3
     2    15    24    1
     3    15    16    1
     4    17    16    1
     5    17    18    1
     6    19    18    1
     7    19    20    1
     8    20    21   am
     9    21    22    2
    10    21     1    1
    11     1     2    1
    12     1     5    1
    13     5     6    1
    14     6     7    1
    15     7     8    1
    16     8     9    1
    17     9    10    1
    18    10    11    1
    19    11    12    1
    20    11    13    1
    21     9    14    1
    22    20    15    1
    23    13     5    1
    24    19    17    1
    25    14     5    1
    26    12     7    1
    27     2     3    1
    28     2     4    1
@<TRIPOS>MOLECULE
*****
 24 28 0 0 0
SMALL
GASTEIGER

@<TRIPOS>ATOM
      1 C          61.9861   89.5283   11.6950 C.3     1  UNL1        0.1284
      2 N          60.9404   90.0800   12.6181 N.3     1  UNL1       -0.3150
      3 H          60.4207   89.3112   13.0414 H       1  UNL1        0.1192
      4 H          60.3001   90.6734   12.0906 H       1  UNL1        0.1192
      5 C          62.1271   88.0449   11.5225 C.3     1  UNL1        0.0214
      6 C          61.3478   87.3366   10.4544 C.3     1  UNL1        0.0018
      7 C          61.4889   85.8532   10.2820 C.3     1  UNL1        0.0001
      8 C          62.4091   85.0782   11.1778 C.3     1  UNL1        0.0000
      9 C          63.1884   85.7865   12.2460 C.3     1  UNL1        0.0001
     10 C          61.4088   88.0731   10.6925 C.3     1  UNL1        0.0000
     11 C          60.4276   88.1116    9.5586 C.3     1  UNL1        0.0001
     12 C          60.5686   86.6283    9.3862 C.3     1  UNL1        0.0000
     13 C          61.2068   88.8199   10.6267 C.3     1  UNL1        0.0018
     14 C          63.0473   87.2699   12.4184 C.3     1  UNL1        0.0018
     15 C          64.2342   91.1562   13.1477 C.3     1  UNL1        0.1672
     16 C          65.3799   92.0777   13.4447 C.3     1  UNL1        0.0372
     17 C          65.8096   92.7134   12.1557 C.3     1  UNL1        0.0226
     18 C          66.0084   93.1766   10.7429 C.3     1  UNL1        0.0216
     19 C          64.9294   92.1847   11.0622 C.3     1  UNL1        0.0764
     20 N          63.9558   91.2224   11.6752 N.am    1  UNL1       -0.2691
     21 C          62.8907   90.4600   10.9442 C.2     1  UNL1        0.2403
     22 O          62.7303   90.6293    9.4625 O.2     1  UNL1       -0.2734
     23 N          62.7586   89.4760   15.1476 N.1     1  UNL1       -0.1942
     24 C          63.4964   90.3161   14.1477 C.1     1  UNL1        0.0925
@<TRIPOS>BOND
     1    23    24    3
     2    15    24    1
     3    15    16    1
     4    17    16    1
     5    17    18    1
     6    19    18    1
     7    19    20    1
     8    20    21   am
     9    21    22    2
    10    21     1    1
    11     1     2    1
    12     1     5    1
    13     5     6    1
    14     6     7    1
    15     7     8    1
    16     8     9    1
    17     9    10    1
    18    10    11    1
    19    11    12    1
    20    11    13    1
    21     9    14    1
    22    20    15    1
    23    13     5    1
    24    19    17    1
    25    14     5    1
    26    12     7    1
    27     2     3    1
    28     2     4    1
@<TRIPOS>MOLECULE
*****
 24 28 0 0 0
SMALL
GASTEIGER

@<TRIPOS>ATOM
      1 C          63.8698   84.6873   13.9113 C.3     1  UNL1        0.1284
      2 N          65.3256   84.3900   14.1173 N.3     1  UNL1       -0.3150
      3 H          65.8873   85.1073   13.6586 H       1  UNL1        0.1192
      4 H          65.5462   83.4780   13.7173 H       1  UNL1        0.1192
      5 C          63.4551   85.8960   13.1256 C.3     1  UNL1        0.0214
      6 C          63.8241   87.2673   13.6086 C.3     1  UNL1        0.0018
      7 C          63.4093   88.4759   12.8229 C.3     1  UNL1        0.0001
      8 C          62.6256   88.3132   11.5544 C.3     1  UNL1        0.0000
      9 C          62.2566   86.9419   11.0714 C.3     1  UNL1        0.0001
     10 C          63.9423   86.5444   13.8659 C.3     1  UNL1        0.0000
     11 C          64.6078   87.4301   14.8771 C.3     1  UNL1        0.0001
     12 C          64.1931   88.6387   14.0915 C.3     1  UNL1        0.0000
     13 C          64.2388   86.0588   14.3942 C.3     1  UNL1        0.0018
     14 C          62.6713   85.7333   11.8571 C.3     1  UNL1        0.0018
     15 C          63.1072   81.9809   12.5300 C.3     1  UNL1        0.1672
     16 C          62.4747   80.6605   12.2030 C.3     1  UNL1        0.0372
     17 C          61.4677   80.3518   13.2711 C.3     1  UNL1        0.0226
     18 C          60.5530   80.3177   14.4595 C.3     1  UNL1        0.0216
     19 C          61.4778   81.4813   14.2581 C.3     1  UNL1        0.0764
     20 N          62.4911   82.4881   13.8001 N.am    1  UNL1       -0.2691
     21 C          62.8289   83.7761   14.4908 C.2     1  UNL1        0.2403
     22 O          62.1257   84.1527   15.7612 O.2     1  UNL1       -0.2734
     23 N          65.2313   83.3640   10.9254 N.1     1  UNL1       -0.1942
     24 C          64.1693   82.6725   11.7277 C.1     1  UNL1        0.0925
@<TRIPOS>BOND
     1    23    24    3
     2    15    24    1
     3    15    16    1
     4    17    16    1
     5    17    18    1
     6    19    18    1
     7    19    20    1
     8    20    21   am
     9    21    22    2
    10    21     1    1
    11     1     2    1
    12     1     5    1
    13     5     6    1
    14     6     7    1
    15     7     8    1
    16     8     9    1
    17     9    10    1
    18    10    11    1
    19    11    12    1
    20    11    13    1
    21     9    14    1
    22    20    15    1
    23    13     5    1
    24    19    17    1
    25    14     5    1
    26    12     7    1
    27     2     3    1
    28     2     4    1
@<TRIPOS>MOLECULE
*****
 24 28 0 0 0
SMALL
GASTEIGER

@<TRIPOS>ATOM
      1 C          64.1051   85.0942   13.6350 C.3     1  UNL1        0.1284
      2 N          64.6737   85.1823   15.0202 N.3     1  UNL1       -0.3150
      3 H          64.6022   86.1426   15.3566 H       1  UNL1        0.1192
      4 H          65.6537   84.8998   15.0041 H       1  UNL1        0.1192
      5 C          63.5500   86.3203   12.9727 C.3     1  UNL1        0.0214
      6 C          63.8147   87.6749   13.5600 C.3     1  UNL1        0.0018
      7 C          63.2596   88.9009   12.8977 C.3     1  UNL1        0.0001
      8 C          62.4399   88.7724   11.6481 C.3     1  UNL1        0.0000
      9 C          62.1752   87.4178   11.0608 C.3     1  UNL1        0.0001
     10 C          64.0084   86.9472   13.7491 C.3     1  UNL1        0.0000
     11 C          64.6344   87.8035   14.8096 C.3     1  UNL1        0.0001
     12 C          64.0794   89.0295   14.1473 C.3     1  UNL1        0.0000
     13 C          64.3698   86.4489   14.2223 C.3     1  UNL1        0.0018
     14 C          62.7303   86.1918   11.7231 C.3     1  UNL1        0.0018
     15 C          62.1654   82.7814   14.4734 C.3     1  UNL1        0.1672
     16 C          61.4315   81.4753   14.5486 C.3     1  UNL1        0.0372
     17 C          61.9606   80.5833   13.4649 C.3     1  UNL1        0.0226
     18 C          62.6742   79.9360   12.3152 C.3     1  UNL1        0.0216
     19 C          63.0214   81.3380   12.7199 C.3     1  UNL1        0.0764
     20 N          63.1480   82.6965   13.3432 N.am    1  UNL1       -0.2691
     21 C          64.0915   83.7800   12.9121 C.2     1  UNL1        0.2403
     22 O          65.0215   83.5492   11.7580 O.2     1  UNL1       -0.2734
     23 N          61.7422   85.1477   16.2683 N.1     1  UNL1       -0.1942
     24 C          61.9538   83.9646   15.3708 C.1     1  UNL1        0.0925
@<TRIPOS>BOND
     1    23    24    3
     2    15    24    1
     3    15    16    1
     4    17    16    1
     5    17    18    1
     6    19    18    1
     7    19    20    1
     8    20    21   am
     9    21    22    2
    10    21     1    1
    11     1     2    1
    12     1     5    1
    13     5     6    1
    14     6     7    1
    15     7     8    1
    16     8     9    1
    17     9    10    1
    18    10    11    1
    19    11    12    1
    20    11    13    1
    21     9    14    1
    22    20    15    1
    23    13     5    1
    24    19    17    1
    25    14     5    1
    26    12     7    1
    27     2     3    1
    28     2     4    1
@<TRIPOS>MOLECULE
*****
 24 28 0 0 0
SMALL
GASTEIGER

@<TRIPOS>ATOM
      1 C          61.1838   87.1134   10.8060 C.3     1  UNL1        0.1284
      2 N          59.8185   87.7130   10.9686 N.3     1  UNL1       -0.3150
      3 H          59.2621   87.5225   10.1351 H       1  UNL1        0.1192
      4 H          59.9031   88.7212   11.0978 H       1  UNL1        0.1192
      5 C          61.5329   86.3727    9.5492 C.3     1  UNL1        0.0214
      6 C          60.5364   86.2801    8.4319 C.3     1  UNL1        0.0018
      7 C          60.8855   85.5394    7.1751 C.3     1  UNL1        0.0001
      8 C          62.2311   84.8914    7.0357 C.3     1  UNL1        0.0000
      9 C          63.2276   84.9840    8.1530 C.3     1  UNL1        0.0001
     10 C          60.5430   86.6075    9.1359 C.3     1  UNL1        0.0000
     11 C          59.1908   86.9281    8.5713 C.3     1  UNL1        0.0001
     12 C          59.5399   86.1874    7.3146 C.3     1  UNL1        0.0000
     13 C          60.1873   87.0207    9.6886 C.3     1  UNL1        0.0018
     14 C          62.8785   85.7247    9.4097 C.3     1  UNL1        0.0018
     15 C          62.4424   89.8901   11.5271 C.3     1  UNL1        0.1672
     16 C          63.2531   90.9811   12.1617 C.3     1  UNL1        0.0372
     17 C          64.0917   90.3664   13.2429 C.3     1  UNL1        0.0226
     18 C          64.7913   89.4851   14.2348 C.3     1  UNL1        0.0216
     19 C          63.7992   88.8956   13.2766 C.3     1  UNL1        0.0764
     20 N          62.7799   88.6013   12.2162 N.am    1  UNL1       -0.2691
     21 C          62.1999   87.2544   11.9003 C.2     1  UNL1        0.2403
     22 O          62.6362   86.0487   12.6787 O.2     1  UNL1       -0.2734
     23 N          60.4889   90.2270    9.2754 N.1     1  UNL1       -0.1942
     24 C          61.4656   90.0586   10.4013 C.1     1  UNL1        0.0925
@<TRIPOS>BOND
     1    23    24    3
     2    15    24    1
     3    15    16    1
     4    17    16    1
     5    17    18    1
     6    19    18    1
     7    19    20    1
     8    20    21   am
     9    21    22    2
    10    21     1    1
    11     1     2    1
    12     1     5    1
    13     5     6    1
    14     6     7    1
    15     7     8    1
    16     8     9    1
    17     9    10    1
    18    10    11    1
    19    11    12    1
    20    11    13    1
    21     9    14    1
    22    20    15    1
    23    13     5    1
    24    19    17    1
    25    14     5    1
    26    12     7    1
    27     2     3    1
    28     2     4    1
@<TRIPOS>MOLECULE
*****
 24 28 0 0 0
SMALL
GASTEIGER

@<TRIPOS>ATOM
      1 C          61.9971   86.2419   11.3986 C.3     1  UNL1        0.1284
      2 N          61.1182   85.9650   10.2150 N.3     1  UNL1       -0.3150
      3 H          60.9667   86.8291    9.6945 H       1  UNL1        0.1192
      4 H          60.2215   85.5995   10.5355 H       1  UNL1        0.1192
      5 C          62.5011   87.6322   11.6496 C.3     1  UNL1        0.0214
      6 C          62.1026   88.7512   10.7337 C.3     1  UNL1        0.0018
      7 C          62.6066   90.1415   10.9848 C.3     1  UNL1        0.0001
      8 C          63.5090   90.4128   12.1518 C.3     1  UNL1        0.0000
      9 C          63.9075   89.2938   13.0678 C.3     1  UNL1        0.0001
     10 C          61.9512   87.9905   10.7692 C.3     1  UNL1        0.0000
     11 C          61.2002   88.4799    9.5666 C.3     1  UNL1        0.0001
     12 C          61.7041   89.8702    9.8177 C.3     1  UNL1        0.0000
     13 C          61.5986   87.3609   10.4826 C.3     1  UNL1        0.0018
     14 C          63.4035   87.9035   12.8167 C.3     1  UNL1        0.0018
     15 C          63.5717   83.7252   10.3980 C.3     1  UNL1        0.1672
     16 C          64.2884   82.4090   10.3314 C.3     1  UNL1        0.0372
     17 C          64.2859   81.8098   11.7065 C.3     1  UNL1        0.0226
     18 C          64.1267   81.4709   13.1591 C.3     1  UNL1        0.0216
     19 C          63.5678   82.7555   12.6230 C.3     1  UNL1        0.0764
     20 N          63.1264   83.9392   11.8143 N.am    1  UNL1       -0.2691
     21 C          62.3721   85.1284   12.3311 C.2     1  UNL1        0.2403
     22 O          61.9928   85.2040   13.7803 O.2     1  UNL1       -0.2734
     23 N          63.1103   85.5998    8.1017 N.1     1  UNL1       -0.1942
     24 C          63.3410   84.6625    9.2499 C.1     1  UNL1        0.0925
@<TRIPOS>BOND
     1    23    24    3
     2    15    24    1
     3    15    16    1
     4    17    16    1
     5    17    18    1
     6    19    18    1
     7    19    20    1
     8    20    21   am
     9    21    22    2
    10    21     1    1
    11     1     2    1
    12     1     5    1
    13     5     6    1
    14     6     7    1
    15     7     8    1
    16     8     9    1
    17     9    10    1
    18    10    11    1
    19    11    12    1
    20    11    13    1
    21     9    14    1
    22    20    15    1
    23    13     5    1
    24    19    17    1
    25    14     5    1
    26    12     7    1
    27     2     3    1
    28     2     4    1
@<TRIPOS>MOLECULE
*****
 24 28 0 0 0
SMALL
GASTEIGER

@<TRIPOS>ATOM
      1 C          63.1373   89.6062   13.3034 C.3     1  UNL1        0.1284
      2 N          61.8089   90.0259   13.8595 N.3     1  UNL1       -0.3150
      3 H          61.8127   91.0322   14.0264 H       1  UNL1        0.1192
      4 H          61.6380   89.5363   14.7378 H       1  UNL1        0.1192
      5 C          64.2134   90.6272   13.0805 C.3     1  UNL1        0.0214
      6 C          64.2497   91.4118   11.8025 C.3     1  UNL1        0.0018
      7 C          65.3258   92.4327   11.5796 C.3     1  UNL1        0.0001
      8 C          66.3655   92.6691   12.6347 C.3     1  UNL1        0.0000
      9 C          66.3291   91.8846   13.9126 C.3     1  UNL1        0.0001
     10 C          63.7893   90.8589   12.0944 C.3     1  UNL1        0.0000
     11 C          63.2100   91.1753   10.7475 C.3     1  UNL1        0.0001
     12 C          64.2861   92.1963   10.5246 C.3     1  UNL1        0.0000
     13 C          63.1737   90.3908   12.0254 C.3     1  UNL1        0.0018
     14 C          65.2531   90.8637   14.1355 C.3     1  UNL1        0.0018
     15 C          63.7062   87.4824   15.5350 C.3     1  UNL1        0.1672
     16 C          64.0040   86.2053   16.2635 C.3     1  UNL1        0.0372
     17 C          64.1401   85.1120   15.2456 C.3     1  UNL1        0.0226
     18 C          64.2174   84.2478   14.0219 C.3     1  UNL1        0.0216
     19 C          63.9265   85.7132   13.8881 C.3     1  UNL1        0.0764
     20 N          63.6584   87.1782   14.0669 N.am    1  UNL1       -0.2691
     21 C          63.3896   88.1657   12.9702 C.2     1  UNL1        0.2403
     22 O          63.3731   87.7125   11.5404 O.2     1  UNL1       -0.2734
     23 N          63.2811   90.1723   16.7933 N.1     1  UNL1       -0.1942
     24 C          63.4936   88.8274   16.1641 C.1     1  UNL1        0.0925
@<TRIPOS>BOND
     1    23    24    3
     2    15    24    1
     3    15    16    1
     4    17    16    1
     5    17    18    1
     6    19    18    1
     7    19    20    1
     8    20    21   am
     9    21    22    2
    10    21     1    1
    11     1     2    1
    12     1     5    1
    13     5     6    1
    14     6     7    1
    15     7     8    1
    16     8     9    1
    17     9    10    1
    18    10    11    1
    19    11    12    1
    20    11    13    1
    21     9    14    1
    22    20    15    1
    23    13     5    1
    24    19    17    1
    25    14     5    1
    26    12     7    1
    27     2     3    1
    28     2     4    1
@<TRIPOS>MOLECULE
*****
 24 28 0 0 0
SMALL
GASTEIGER

@<TRIPOS>ATOM
      1 C          63.9154   85.2044   13.3192 C.3     1  UNL1        0.1284
      2 N          64.4933   85.2986   14.7002 N.3     1  UNL1       -0.3150
      3 H          64.4177   86.2589   15.0356 H       1  UNL1        0.1192
      4 H          65.4750   85.0227   14.6775 H       1  UNL1        0.1192
      5 C          63.3474   86.4257   12.6590 C.3     1  UNL1        0.0214
      6 C          62.3843   86.2821   11.5180 C.3     1  UNL1        0.0018
      7 C          61.8163   87.5033   10.8579 C.3     1  UNL1        0.0001
      8 C          62.2114   88.8682   11.3386 C.3     1  UNL1        0.0000
      9 C          63.1745   89.0117   12.4796 C.3     1  UNL1        0.0001
     10 C          62.7733   85.7881   11.9736 C.3     1  UNL1        0.0000
     11 C          61.9892   84.9173   11.0373 C.3     1  UNL1        0.0001
     12 C          61.4212   86.1385   10.3771 C.3     1  UNL1        0.0000
     13 C          62.9523   85.0608   12.1782 C.3     1  UNL1        0.0018
     14 C          63.7425   87.7905   13.1398 C.3     1  UNL1        0.0018
     15 C          62.2204   82.7809   14.3528 C.3     1  UNL1        0.1672
     16 C          61.5797   81.4328   14.5021 C.3     1  UNL1        0.0372
     17 C          62.0444   80.5704   13.3661 C.3     1  UNL1        0.0226
     18 C          62.6703   79.9634   12.1455 C.3     1  UNL1        0.0216
     19 C          62.9722   81.3855   12.5147 C.3     1  UNL1        0.0764
     20 N          63.0809   82.7516   13.1245 N.am    1  UNL1       -0.2691
     21 C          63.9055   83.8890   12.5985 C.2     1  UNL1        0.2403
     22 O          64.7202   83.7107   11.3517 O.2     1  UNL1       -0.2734
     23 N          61.8462   85.1241   16.1884 N.1     1  UNL1       -0.1942
     24 C          62.0333   83.9525   15.2706 C.1     1  UNL1        0.0925
@<TRIPOS>BOND
     1    23    24    3
     2    15    24    1
     3    15    16    1
     4    17    16    1
     5    17    18    1
     6    19    18    1
     7    19    20    1
     8    20    21   am
     9    21    22    2
    10    21     1    1
    11     1     2    1
    12     1     5    1
    13     5     6    1
    14     6     7    1
    15     7     8    1
    16     8     9    1
    17     9    10    1
    18    10    11    1
    19    11    12    1
    20    11    13    1
    21     9    14    1
    22    20    15    1
    23    13     5    1
    24    19    17    1
    25    14     5    1
    26    12     7    1
    27     2     3    1
    28     2     4    1
