@<TRIPOS>MOLECULE
*****
 63 69 0 0 0
SMALL
GASTEIGER

@<TRIPOS>ATOM
      1 N          64.5363   83.1806   13.2394 N.3     1  UNL1       -0.1862
      2 C          65.1577   84.0686   14.2764 C.3     1  UNL1        0.1775
      3 C          64.7385   85.5050   14.3825 C.2     1  UNL1        0.2452
      4 O          65.3600   86.3930   15.4195 O.2     1  UNL1       -0.2732
      5 N          63.6980   86.0533   13.4516 N.am    1  UNL1       -0.2541
      6 C          63.2788   87.4896   13.5577 C.3     1  UNL1        0.1577
      7 C          62.2383   88.0380   12.6269 C.2     1  UNL1        0.2445
      8 O          61.8191   89.4743   12.7329 O.2     1  UNL1       -0.2731
      9 N          61.6168   87.1500   11.5898 N.am    1  UNL1       -0.2705
     10 C          62.0360   85.7136   11.4838 C.3     1  UNL1        0.1359
     11 C          63.0766   85.1653   12.4147 C.3     1  UNL1        0.1908
     12 N          63.4957   83.7290   12.3086 N.am    1  UNL1       -0.1863
     13 C          62.8743   82.8410   11.2716 C.2     1  UNL1        0.3191
     14 O          61.8337   83.3893   10.3407 O.2     1  UNL1       -0.2512
     15 N          63.2934   81.4046   11.1655 N.am    1  UNL1       -0.2836
     16 H          63.9764   81.0448   11.7765 H       1  UNL1        0.1513
     17 C          64.9554   81.7443   13.1333 C.3     1  UNL1        0.1188
     18 C          62.7987   80.7194   14.1570 C.2     1  UNL1       -0.0034
     19 C          64.2885   80.7037   13.9832 C.2     1  UNL1       -0.0071
     20 C          63.9002   88.3776   14.5946 C.3     1  UNL1        0.0556
     21 C          64.5758   89.6522   14.1833 C.ar    1  UNL1       -0.0198
     22 C          65.6684   90.2300   15.0330 C.ar    1  UNL1       -0.0011
     23 C          66.3439   91.5046   14.6217 C.ar    1  UNL1        0.0363
     24 C          65.9268   92.2013   13.3605 C.ar    1  UNL1        0.1337
     25 O          66.6023   93.4758   12.9492 O.3     1  UNL1       -0.5055
     26 C          64.8341   91.6234   12.5107 C.ar    1  UNL1        0.0363
     27 C          64.1586   90.3489   12.9220 C.ar    1  UNL1       -0.0011
     28 H          67.2849   93.8368   13.4800 H       1  UNL1        0.2922
     29 C          60.5763   87.6983   10.6590 C.3     1  UNL1        0.1217
     30 C          60.9124   88.8418    9.7482 C.ar    1  UNL1        0.0135
     31 C          61.9594   89.8380   10.1501 C.ar    1  UNL1       -0.0012
     32 C          62.2956   90.9814    9.2394 C.ar    1  UNL1       -0.0002
     33 C          61.5848   91.1288    7.9268 C.ar    1  UNL1        0.0016
     34 C          60.5378   90.1326    7.5249 C.ar    1  UNL1        0.0214
     35 C          59.6765   90.0199    6.3021 C.ar    1  UNL1        0.0722
     36 C          58.8080   88.8068    6.4570 C.ar    1  UNL1        0.0805
     37 N          59.1325   88.1698    7.7756 N.ar    1  UNL1       -0.3241
     38 C          58.4992   86.9309    8.3358 C.3     1  UNL1        0.1305
     39 C          60.2016   88.9892    8.4356 C.ar    1  UNL1        0.0577
     40 C          59.6826   90.9561    5.1300 C.2     1  UNL1        0.2510
     41 O          58.3886   91.4841    4.5850 O.2     1  UNL1       -0.2698
     42 N          60.9827   91.3642    4.5028 N.am    1  UNL1       -0.2791
     43 H          61.8319   91.0176    4.8605 H       1  UNL1        0.1552
     44 C          60.9888   92.3003    3.3308 C.ar    1  UNL1        0.0701
     45 C          62.0234   92.1485    2.2553 C.ar    1  UNL1        0.0191
     46 C          62.0297   93.0846    1.0832 C.ar    1  UNL1        0.0354
     47 C          61.0014   94.1724    0.9867 C.ar    1  UNL1        0.1286
     48 N          59.9669   94.3241    2.0622 N.ar    1  UNL1       -0.2281
     49 C          59.9606   93.3881    3.2343 C.ar    1  UNL1        0.1149
     50 N          61.0076   95.1084   -0.1853 N.pl3   1  UNL1       -0.3181
     51 H          61.8013   95.6608   -0.3699 H       1  UNL1        0.1482
     52 C          59.8044   95.2029   -1.0761 C.3     1  UNL1        0.0881
     53 C          59.2738   93.9739   -1.7529 C.3     1  UNL1        0.0180
     54 C          57.9923   94.1039   -0.9843 C.3     1  UNL1        0.0017
     55 C          60.5553   93.8439   -2.5215 C.3     1  UNL1        0.0017
     56 C          58.7434   92.7449   -2.4297 C.3     1  UNL1        0.0017
     57 C          62.6720   80.5166   10.1286 C.3     1  UNL1        0.1177
     58 C          63.0787   79.0759   10.0337 C.ar    1  UNL1       -0.0025
     59 C          64.0386   78.6362    8.9684 C.ar    1  UNL1       -0.0026
     60 C          64.4453   77.1955    8.8735 C.ar    1  UNL1       -0.0003
     61 C          63.8920   76.1945    9.8440 C.ar    1  UNL1       -0.0000
     62 C          62.9320   76.6343   10.9094 C.ar    1  UNL1       -0.0003
     63 C          62.5253   78.0750   11.0043 C.ar    1  UNL1       -0.0026
@<TRIPOS>BOND
     1    18    19    2
     2    19    17    1
     3    17     1    1
     4     1     2    1
     5     2     3    1
     6     3     4    2
     7     3     5   am
     8     5     6    1
     9     6    20    1
    10    20    21    1
    11    21    22   ar
    12    22    23   ar
    13    23    24   ar
    14    24    25    1
    15    24    26   ar
    16    26    27   ar
    17     6     7    1
    18     7     8    2
    19     7     9   am
    20     9    29    1
    21    29    30    1
    22    30    31   ar
    23    31    32   ar
    24    32    33   ar
    25    33    34   ar
    26    34    35   ar
    27    35    40    1
    28    40    41    2
    29    40    42   am
    30    42    44    1
    31    44    45   ar
    32    45    46   ar
    33    46    47   ar
    34    47    50    1
    35    50    52    1
    36    52    53    1
    37    53    54    1
    38    53    55    1
    39    53    56    1
    40    47    48   ar
    41    48    49   ar
    42    35    36   ar
    43    36    37   ar
    44    37    38    1
    45    37    39   ar
    46     9    10    1
    47    10    11    1
    48    11    12    1
    49    12    13   am
    50    13    14    2
    51    13    15   am
    52    15    57    1
    53    57    58    1
    54    58    59   ar
    55    59    60   ar
    56    60    61   ar
    57    61    62   ar
    58    62    63   ar
    59    12     1    1
    60    63    58   ar
    61    11     5    1
    62    27    21   ar
    63    39    30   ar
    64    39    34   ar
    65    49    44   ar
    66    25    28    1
    67    42    43    1
    68    50    51    1
    69    15    16    1
@<TRIPOS>MOLECULE
*****
 63 69 0 0 0
SMALL
GASTEIGER

@<TRIPOS>ATOM
      1 N          64.5358   83.1654   13.2597 N.3     1  UNL1       -0.1862
      2 C          65.1613   84.0482   14.2986 C.3     1  UNL1        0.1775
      3 C          64.7479   85.4859   14.4087 C.2     1  UNL1        0.2452
      4 O          65.3735   86.3687   15.4477 O.2     1  UNL1       -0.2732
      5 N          63.7091   86.0408   13.4798 N.am    1  UNL1       -0.2541
      6 C          63.2958   87.4785   13.5898 C.3     1  UNL1        0.1577
      7 C          62.2570   88.0335   12.6609 C.2     1  UNL1        0.2445
      8 O          61.8437   89.4712   12.7710 O.2     1  UNL1       -0.2731
      9 N          61.6315   87.1507   11.6219 N.am    1  UNL1       -0.2705
     10 C          62.0448   85.7130   11.5119 C.3     1  UNL1        0.1359
     11 C          63.0837   85.1580   12.4409 C.3     1  UNL1        0.1908
     12 N          63.4970   83.7203   12.3308 N.am    1  UNL1       -0.1863
     13 C          62.8714   82.8375   11.2918 C.2     1  UNL1        0.3191
     14 O          61.8326   83.3924   10.3630 O.2     1  UNL1       -0.2512
     15 N          63.2848   81.3998   11.1818 N.am    1  UNL1       -0.2836
     16 H          63.9666   81.0356   11.7915 H       1  UNL1        0.1513
     17 C          64.9491   81.7276   13.1497 C.3     1  UNL1        0.1188
     18 C          62.8543   80.4666   14.0279 C.2     1  UNL1       -0.0034
     19 C          64.3358   80.6997   14.0536 C.2     1  UNL1       -0.0071
     20 C          63.9213   88.3613   14.6288 C.3     1  UNL1        0.0556
     21 C          64.6016   89.6343   14.2204 C.ar    1  UNL1       -0.0198
     22 C          65.7276   90.1813   15.0466 C.ar    1  UNL1       -0.0011
     23 C          66.4079   91.4543   14.6383 C.ar    1  UNL1        0.0363
     24 C          65.9622   92.1802   13.4036 C.ar    1  UNL1        0.1337
     25 O          66.6425   93.4532   12.9953 O.3     1  UNL1       -0.5055
     26 C          64.8361   91.6332   12.5773 C.ar    1  UNL1        0.0363
     27 C          64.1558   90.3602   12.9857 C.ar    1  UNL1       -0.0011
     28 H          67.3459   93.7949   13.5114 H       1  UNL1        0.2922
     29 C          60.5927   87.7056   10.6931 C.3     1  UNL1        0.1217
     30 C          60.9345   88.8467    9.7814 C.ar    1  UNL1        0.0135
     31 C          61.9748   89.8472   10.1897 C.ar    1  UNL1       -0.0012
     32 C          62.3166   90.9883    9.2781 C.ar    1  UNL1       -0.0002
     33 C          61.6181   91.1288    7.9581 C.ar    1  UNL1        0.0016
     34 C          60.5778   90.1283    7.5498 C.ar    1  UNL1        0.0214
     35 C          59.7287   90.0087    6.3191 C.ar    1  UNL1        0.0722
     36 C          58.8621   88.7938    6.4701 C.ar    1  UNL1        0.0805
     37 N          59.1756   88.1625    7.7941 N.ar    1  UNL1       -0.3241
     38 C          58.5403   86.9239    8.3528 C.3     1  UNL1        0.1305
     39 C          60.2360   88.9873    8.4614 C.ar    1  UNL1        0.0577
     40 C          59.7436   90.9406    5.1436 C.2     1  UNL1        0.2510
     41 O          58.4618   91.5389    4.6446 O.2     1  UNL1       -0.2698
     42 N          61.0403   91.2741    4.4673 N.am    1  UNL1       -0.2791
     43 H          61.8815   90.8815    4.7949 H       1  UNL1        0.1552
     44 C          61.0552   92.2059    3.2920 C.ar    1  UNL1        0.0701
     45 C          62.3110   92.3822    2.4907 C.ar    1  UNL1        0.0191
     46 C          62.3260   93.3139    1.3153 C.ar    1  UNL1        0.0354
     47 C          61.0853   94.0695    0.9412 C.ar    1  UNL1        0.1286
     48 N          59.8296   93.8932    1.7425 N.ar    1  UNL1       -0.2281
     49 C          59.8146   92.9614    2.9179 C.ar    1  UNL1        0.1149
     50 N          61.1003   95.0012   -0.2341 N.pl3   1  UNL1       -0.3181
     51 H          60.8799   95.9528   -0.1108 H       1  UNL1        0.1482
     52 C          61.4511   94.4832   -1.5975 C.3     1  UNL1        0.0881
     53 C          62.8387   94.6685   -2.1361 C.3     1  UNL1        0.0180
     54 C          62.8522   93.2397   -2.5927 C.3     1  UNL1        0.0017
     55 C          62.8252   96.0972   -1.6796 C.3     1  UNL1        0.0017
     56 C          64.2263   94.8538   -2.6747 C.3     1  UNL1        0.0017
     57 C          62.6593   80.5170   10.1429 C.3     1  UNL1        0.1177
     58 C          63.0685   79.0778   10.0365 C.ar    1  UNL1       -0.0025
     59 C          62.5180   78.0684   10.9998 C.ar    1  UNL1       -0.0026
     60 C          62.9273   76.6292   10.8935 C.ar    1  UNL1       -0.0003
     61 C          63.8870   76.1995    9.8238 C.ar    1  UNL1       -0.0000
     62 C          64.4375   77.2089    8.8604 C.ar    1  UNL1       -0.0003
     63 C          64.0283   78.6481    8.9668 C.ar    1  UNL1       -0.0026
@<TRIPOS>BOND
     1    18    19    2
     2    19    17    1
     3    17     1    1
     4     1     2    1
     5     2     3    1
     6     3     4    2
     7     3     5   am
     8     5     6    1
     9     6    20    1
    10    20    21    1
    11    21    22   ar
    12    22    23   ar
    13    23    24   ar
    14    24    25    1
    15    24    26   ar
    16    26    27   ar
    17     6     7    1
    18     7     8    2
    19     7     9   am
    20     9    29    1
    21    29    30    1
    22    30    31   ar
    23    31    32   ar
    24    32    33   ar
    25    33    34   ar
    26    34    35   ar
    27    35    40    1
    28    40    41    2
    29    40    42   am
    30    42    44    1
    31    44    45   ar
    32    45    46   ar
    33    46    47   ar
    34    47    50    1
    35    50    52    1
    36    52    53    1
    37    53    54    1
    38    53    55    1
    39    53    56    1
    40    47    48   ar
    41    48    49   ar
    42    35    36   ar
    43    36    37   ar
    44    37    38    1
    45    37    39   ar
    46     9    10    1
    47    10    11    1
    48    11    12    1
    49    12    13   am
    50    13    14    2
    51    13    15   am
    52    15    57    1
    53    57    58    1
    54    58    59   ar
    55    59    60   ar
    56    60    61   ar
    57    61    62   ar
    58    62    63   ar
    59    12     1    1
    60    63    58   ar
    61    11     5    1
    62    27    21   ar
    63    39    30   ar
    64    39    34   ar
    65    49    44   ar
    66    25    28    1
    67    42    43    1
    68    50    51    1
    69    15    16    1
