@<TRIPOS>MOLECULE
*****
 28 30 0 0 0
SMALL
GASTEIGER

@<TRIPOS>ATOM
      1 C          63.8436   91.1237   12.9438 C.ar    1  UNL1        0.0689
      2 C          64.5449   91.5609   11.6919 C.ar    1  UNL1        0.0534
      3 C          65.9645   92.0411   11.7563 C.ar    1  UNL1        0.1466
      4 C          66.6828   92.0841   13.0724 C.ar    1  UNL1        0.0376
      5 C          65.9815   91.6470   14.3242 C.ar    1  UNL1        0.0055
      6 C          64.5619   91.1667   14.2599 C.ar    1  UNL1        0.0288
      7 C          63.8606   90.7296   15.5117 C.2     1  UNL1        0.0741
      8 O          63.6185   91.7130   16.6182 O.co2   1  UNL1       -0.5446
      9 O          63.4015   89.3090   15.6571 O.co2   1  UNL1       -0.5446
     10 N          62.4240   90.6435   12.8795 N.pl3   1  UNL1       -0.2149
     11 H          61.7660   90.9628   13.5385 H       1  UNL1        0.1737
     12 S          62.0070   89.6767   11.8111 S.O2    1  UNL1        0.0736
     13 O          62.8263   88.6027   12.4632 O.2     1  UNL1       -0.1499
     14 O          61.1877   90.7507   11.1591 O.2     1  UNL1       -0.1499
     15 C          60.3390   85.8094    7.5377 C.3     1  UNL1        0.0310
     16 C          60.7560   86.7762    8.6060 C.ar    1  UNL1       -0.0218
     17 C          60.2168   88.1760    8.6028 C.ar    1  UNL1       -0.0029
     18 C          60.6338   89.1428    9.6712 C.ar    1  UNL1        0.0199
     19 C          61.5900   88.7098   10.7428 C.ar    1  UNL1        0.1251
     20 C          62.1292   87.3101   10.7460 C.ar    1  UNL1        0.0199
     21 C          61.7122   86.3433    9.6776 C.ar    1  UNL1       -0.0029
     22 O          66.6658   92.4783   10.5044 O.3     1  UNL1       -0.4535
     23 C          66.7525   93.9365   10.1636 C.ar    1  UNL1        0.1453
     24 C          66.0971   94.9541   11.0495 C.ar    1  UNL1        0.0375
     25 C          66.1838   96.4122   10.7087 C.ar    1  UNL1        0.0031
     26 C          66.9260   96.8528    9.4819 C.ar    1  UNL1        0.0002
     27 C          67.5814   95.8353    8.5959 C.ar    1  UNL1        0.0031
     28 C          67.4947   94.3771    8.9368 C.ar    1  UNL1        0.0375
@<TRIPOS>UNITY_ATOM_ATTR
8 1
charge -1
@<TRIPOS>BOND
     1    15    16    1
     2    16    17   ar
     3    17    18   ar
     4    18    19   ar
     5    19    12    1
     6    12    13    2
     7    12    14    2
     8    12    10    1
     9    10     1    1
    10     1     2   ar
    11     2     3   ar
    12     3    22    1
    13    22    23    1
    14    23    24   ar
    15    24    25   ar
    16    25    26   ar
    17    26    27   ar
    18    27    28   ar
    19     3     4   ar
    20     4     5   ar
    21     5     6   ar
    22     6     7    1
    23     7     8   ar
    24     7     9   ar
    25    19    20   ar
    26    20    21   ar
    27    21    16   ar
    28     6     1   ar
    29    28    23   ar
    30    10    11    1
@<TRIPOS>MOLECULE
*****
 28 30 0 0 0
SMALL
GASTEIGER

@<TRIPOS>ATOM
      1 C          61.6377   88.0096   10.9312 C.ar    1  UNL1        0.0689
      2 C          62.4544   86.8390   11.3924 C.ar    1  UNL1        0.0534
      3 C          62.5901   85.6280   10.5177 C.ar    1  UNL1        0.1466
      4 C          61.9091   85.5876    9.1818 C.ar    1  UNL1        0.0376
      5 C          61.0924   86.7582    8.7206 C.ar    1  UNL1        0.0055
      6 C          60.9567   87.9692    9.5953 C.ar    1  UNL1        0.0288
      7 C          60.1400   89.1398    9.1341 C.2     1  UNL1        0.0741
      8 O          59.6066   89.1765    7.7325 O.co2   1  UNL1       -0.5446
      9 O          59.8566   90.2736   10.0743 O.co2   1  UNL1       -0.5446
     10 N          61.5020   89.2206   11.8058 N.pl3   1  UNL1       -0.2149
     11 H          60.6085   89.5492   12.0564 H       1  UNL1        0.1737
     12 S          62.7278   89.9309   12.2986 S.O2    1  UNL1        0.0736
     13 O          63.1344   90.2118   10.8824 O.2     1  UNL1       -0.1499
     14 O          62.3212   89.6500   13.7149 O.2     1  UNL1       -0.1499
     15 C          67.6310   92.7724   14.2697 C.3     1  UNL1        0.0310
     16 C          66.4052   92.0620   13.7769 C.ar    1  UNL1       -0.0218
     17 C          65.7805   92.4609   12.4728 C.ar    1  UNL1       -0.0029
     18 C          64.5547   91.7505   11.9801 C.ar    1  UNL1        0.0199
     19 C          63.9536   90.6413   12.7914 C.ar    1  UNL1        0.1251
     20 C          64.5782   90.2425   14.0955 C.ar    1  UNL1        0.0199
     21 C          65.8041   90.9529   14.5883 C.ar    1  UNL1       -0.0029
     22 O          63.4068   84.4574   10.9789 O.3     1  UNL1       -0.4535
     23 C          62.9297   83.6149   12.1247 C.ar    1  UNL1        0.1453
     24 C          62.7811   84.2196   13.4893 C.ar    1  UNL1        0.0375
     25 C          62.3040   83.3771   14.6350 C.ar    1  UNL1        0.0031
     26 C          61.9756   81.9300   14.4160 C.ar    1  UNL1        0.0002
     27 C          62.1241   81.3253   13.0514 C.ar    1  UNL1        0.0031
     28 C          62.6012   82.1678   11.9057 C.ar    1  UNL1        0.0375
@<TRIPOS>UNITY_ATOM_ATTR
8 1
charge -1
@<TRIPOS>BOND
     1    15    16    1
     2    16    17   ar
     3    17    18   ar
     4    18    19   ar
     5    19    12    1
     6    12    13    2
     7    12    14    2
     8    12    10    1
     9    10     1    1
    10     1     2   ar
    11     2     3   ar
    12     3    22    1
    13    22    23    1
    14    23    24   ar
    15    24    25   ar
    16    25    26   ar
    17    26    27   ar
    18    27    28   ar
    19     3     4   ar
    20     4     5   ar
    21     5     6   ar
    22     6     7    1
    23     7     8   ar
    24     7     9   ar
    25    19    20   ar
    26    20    21   ar
    27    21    16   ar
    28     6     1   ar
    29    28    23   ar
    30    10    11    1
@<TRIPOS>MOLECULE
*****
 28 30 0 0 0
SMALL
GASTEIGER

@<TRIPOS>ATOM
      1 C          61.4381   87.4473   10.4298 C.ar    1  UNL1        0.0689
      2 C          62.3791   86.4922   11.1023 C.ar    1  UNL1        0.0534
      3 C          62.6850   85.1682   10.4668 C.ar    1  UNL1        0.1466
      4 C          62.0499   84.7995    9.1589 C.ar    1  UNL1        0.0376
      5 C          61.1089   85.7547    8.4864 C.ar    1  UNL1        0.0055
      6 C          60.8030   87.0785    9.1218 C.ar    1  UNL1        0.0288
      7 C          59.8620   88.0336    8.4494 C.2     1  UNL1        0.0741
      8 O          60.1621   89.5034    8.4439 O.co2   1  UNL1       -0.5446
      9 O          58.6209   87.5192    7.7824 O.co2   1  UNL1       -0.5446
     10 N          61.1322   88.7712   11.0652 N.pl3   1  UNL1       -0.2149
     11 H          60.1988   89.0726   11.1500 H       1  UNL1        0.1737
     12 S          62.2485   89.6358   11.5715 S.O2    1  UNL1        0.0736
     13 O          61.6643   89.5817   12.9520 O.2     1  UNL1       -0.1499
     14 O          62.8326   89.6899   10.1910 O.2     1  UNL1       -0.1499
     15 C          66.7135   93.0944   13.5968 C.3     1  UNL1        0.0310
     16 C          65.5973   92.2298   13.0905 C.ar    1  UNL1       -0.0218
     17 C          64.9465   91.2338   14.0040 C.ar    1  UNL1       -0.0029
     18 C          63.8303   90.3691   13.4977 C.ar    1  UNL1        0.0199
     19 C          63.3648   90.5005   12.0778 C.ar    1  UNL1        0.1251
     20 C          64.0155   91.4965   11.1643 C.ar    1  UNL1        0.0199
     21 C          65.1317   92.3611   11.6706 C.ar    1  UNL1       -0.0029
     22 O          63.6260   84.2131   11.1393 O.3     1  UNL1       -0.4535
     23 C          63.1026   83.2206   12.1349 C.ar    1  UNL1        0.1453
     24 C          62.9366   81.7821   11.7436 C.ar    1  UNL1        0.0375
     25 C          62.4133   80.7897   12.7392 C.ar    1  UNL1        0.0031
     26 C          62.0559   81.2358   14.1260 C.ar    1  UNL1        0.0002
     27 C          62.2218   82.6743   14.5173 C.ar    1  UNL1        0.0031
     28 C          62.7452   83.6667   13.5217 C.ar    1  UNL1        0.0375
@<TRIPOS>UNITY_ATOM_ATTR
8 1
charge -1
@<TRIPOS>BOND
     1    15    16    1
     2    16    17   ar
     3    17    18   ar
     4    18    19   ar
     5    19    12    1
     6    12    13    2
     7    12    14    2
     8    12    10    1
     9    10     1    1
    10     1     2   ar
    11     2     3   ar
    12     3    22    1
    13    22    23    1
    14    23    24   ar
    15    24    25   ar
    16    25    26   ar
    17    26    27   ar
    18    27    28   ar
    19     3     4   ar
    20     4     5   ar
    21     5     6   ar
    22     6     7    1
    23     7     8   ar
    24     7     9   ar
    25    19    20   ar
    26    20    21   ar
    27    21    16   ar
    28     6     1   ar
    29    28    23   ar
    30    10    11    1
@<TRIPOS>MOLECULE
*****
 28 30 0 0 0
SMALL
GASTEIGER

@<TRIPOS>ATOM
      1 C          64.0025   86.9515   15.6931 C.ar    1  UNL1        0.0689
      2 C          64.5029   87.7781   14.5458 C.ar    1  UNL1        0.0534
      3 C          64.1128   89.2223   14.4357 C.ar    1  UNL1        0.1466
      4 C          63.2223   89.8399   15.4727 C.ar    1  UNL1        0.0376
      5 C          62.7218   89.0132   16.6200 C.ar    1  UNL1        0.0055
      6 C          63.1119   87.5691   16.7302 C.ar    1  UNL1        0.0288
      7 C          62.6114   86.7425   17.8775 C.2     1  UNL1        0.0741
      8 O          61.9485   85.4222   17.6176 O.co2   1  UNL1       -0.5446
      9 O          62.7739   87.2360   19.2846 O.co2   1  UNL1       -0.5446
     10 N          64.3925   85.5073   15.8033 N.pl3   1  UNL1       -0.2149
     11 H          64.8401   85.1790   16.6164 H       1  UNL1        0.1737
     12 S          64.1006   84.5634   14.6747 S.O2    1  UNL1        0.0736
     13 O          65.5719   84.3682   14.4574 O.2     1  UNL1       -0.1499
     14 O          62.6294   84.7586   14.8920 O.2     1  UNL1       -0.1499
     15 C          62.9332   80.7877   10.1601 C.3     1  UNL1        0.0310
     16 C          63.2251   81.7316   11.2887 C.ar    1  UNL1       -0.0218
     17 C          64.1131   82.9193   11.0627 C.ar    1  UNL1       -0.0029
     18 C          64.4049   83.8631   12.1913 C.ar    1  UNL1        0.0199
     19 C          63.8088   83.6194   13.5460 C.ar    1  UNL1        0.1251
     20 C          62.9208   82.4319   13.7721 C.ar    1  UNL1        0.0199
     21 C          62.6289   81.4879   12.6434 C.ar    1  UNL1       -0.0029
     22 O          64.6133   90.0489   13.2884 O.3     1  UNL1       -0.4535
     23 C          65.3379   91.3358   13.5511 C.ar    1  UNL1        0.1453
     24 C          65.4214   92.3819   12.4793 C.ar    1  UNL1        0.0375
     25 C          66.1461   93.6686   12.7421 C.ar    1  UNL1        0.0031
     26 C          66.7872   93.9093   14.0766 C.ar    1  UNL1        0.0002
     27 C          66.7038   92.8633   15.1484 C.ar    1  UNL1        0.0031
     28 C          65.9791   91.5765   14.8856 C.ar    1  UNL1        0.0375
@<TRIPOS>UNITY_ATOM_ATTR
8 1
charge -1
@<TRIPOS>BOND
     1    15    16    1
     2    16    17   ar
     3    17    18   ar
     4    18    19   ar
     5    19    12    1
     6    12    13    2
     7    12    14    2
     8    12    10    1
     9    10     1    1
    10     1     2   ar
    11     2     3   ar
    12     3    22    1
    13    22    23    1
    14    23    24   ar
    15    24    25   ar
    16    25    26   ar
    17    26    27   ar
    18    27    28   ar
    19     3     4   ar
    20     4     5   ar
    21     5     6   ar
    22     6     7    1
    23     7     8   ar
    24     7     9   ar
    25    19    20   ar
    26    20    21   ar
    27    21    16   ar
    28     6     1   ar
    29    28    23   ar
    30    10    11    1
@<TRIPOS>MOLECULE
*****
 28 30 0 0 0
SMALL
GASTEIGER

@<TRIPOS>ATOM
      1 C          61.6082   88.0079    9.7982 C.ar    1  UNL1        0.0689
      2 C          62.4251   88.5730   10.9222 C.ar    1  UNL1        0.0534
      3 C          62.0559   89.8953   11.5266 C.ar    1  UNL1        0.1466
      4 C          60.8699   90.6525   11.0071 C.ar    1  UNL1        0.0376
      5 C          60.0530   90.0874    9.8831 C.ar    1  UNL1        0.0055
      6 C          60.4221   88.7652    9.2786 C.ar    1  UNL1        0.0288
      7 C          59.6052   88.2001    8.1547 C.2     1  UNL1        0.0741
      8 O          59.3086   89.0395    6.9473 O.co2   1  UNL1       -0.5446
      9 O          59.0849   86.7958    8.2379 O.co2   1  UNL1       -0.5446
     10 N          61.9773   86.6857    9.1938 N.pl3   1  UNL1       -0.2149
     11 H          61.9738   86.5734    8.2157 H       1  UNL1        0.1737
     12 S          62.3517   85.5346   10.0795 S.O2    1  UNL1        0.0736
     13 O          63.4018   85.1171    9.0931 O.2     1  UNL1       -0.1499
     14 O          61.3017   85.9520   11.0659 O.2     1  UNL1       -0.1499
     15 C          63.8497   80.9298   13.6224 C.3     1  UNL1        0.0310
     16 C          63.4752   82.0809   12.7368 C.ar    1  UNL1       -0.0218
     17 C          63.7796   82.0279   11.2689 C.ar    1  UNL1       -0.0029
     18 C          63.4051   83.1791   10.3832 C.ar    1  UNL1        0.0199
     19 C          62.7262   84.3833   10.9653 C.ar    1  UNL1        0.1251
     20 C          62.4218   84.4364   12.4331 C.ar    1  UNL1        0.0199
     21 C          62.7963   83.2852   13.3189 C.ar    1  UNL1       -0.0029
     22 O          62.8729   90.4604   12.6506 O.3     1  UNL1       -0.4535
     23 C          64.1048   91.2628   12.3528 C.ar    1  UNL1        0.1453
     24 C          65.1165   91.5121   13.4317 C.ar    1  UNL1        0.0375
     25 C          66.3483   92.3145   13.1339 C.ar    1  UNL1        0.0031
     26 C          66.5684   92.8675   11.7570 C.ar    1  UNL1        0.0002
     27 C          65.5567   92.6181   10.6780 C.ar    1  UNL1        0.0031
     28 C          64.3249   91.8158   10.9759 C.ar    1  UNL1        0.0375
@<TRIPOS>UNITY_ATOM_ATTR
8 1
charge -1
@<TRIPOS>BOND
     1    15    16    1
     2    16    17   ar
     3    17    18   ar
     4    18    19   ar
     5    19    12    1
     6    12    13    2
     7    12    14    2
     8    12    10    1
     9    10     1    1
    10     1     2   ar
    11     2     3   ar
    12     3    22    1
    13    22    23    1
    14    23    24   ar
    15    24    25   ar
    16    25    26   ar
    17    26    27   ar
    18    27    28   ar
    19     3     4   ar
    20     4     5   ar
    21     5     6   ar
    22     6     7    1
    23     7     8   ar
    24     7     9   ar
    25    19    20   ar
    26    20    21   ar
    27    21    16   ar
    28     6     1   ar
    29    28    23   ar
    30    10    11    1
@<TRIPOS>MOLECULE
*****
 28 30 0 0 0
SMALL
GASTEIGER

@<TRIPOS>ATOM
      1 C          62.9588   89.2965   12.4178 C.ar    1  UNL1        0.0689
      2 C          63.5334   88.2510   13.3270 C.ar    1  UNL1        0.0534
      3 C          63.4231   86.7995   12.9649 C.ar    1  UNL1        0.1466
      4 C          62.7382   86.3935   11.6936 C.ar    1  UNL1        0.0376
      5 C          62.1636   87.4391   10.7844 C.ar    1  UNL1        0.0055
      6 C          62.2738   88.8905   11.1465 C.ar    1  UNL1        0.0288
      7 C          61.6992   89.9360   10.2373 C.2     1  UNL1        0.0741
      8 O          62.5365   91.1081    9.8184 O.co2   1  UNL1       -0.5446
      9 O          60.2873   89.8096    9.7469 O.co2   1  UNL1       -0.5446
     10 N          63.0690   90.7479   12.7798 N.pl3   1  UNL1       -0.2149
     11 H          62.3260   91.3626   12.5813 H       1  UNL1        0.1737
     12 S          64.3113   91.2629   13.4442 S.O2    1  UNL1        0.0736
     13 O          64.9847   91.3629   12.1076 O.2     1  UNL1       -0.1499
     14 O          63.6379   91.1628   14.7808 O.2     1  UNL1       -0.1499
     15 C          69.2807   93.3227   16.1019 C.3     1  UNL1        0.0310
     16 C          68.0384   92.8077   15.4375 C.ar    1  UNL1       -0.0218
     17 C          66.7564   92.7173   16.2112 C.ar    1  UNL1       -0.0029
     18 C          65.5141   92.2023   15.5468 C.ar    1  UNL1        0.0199
     19 C          65.5537   91.7778   14.1086 C.ar    1  UNL1        0.1251
     20 C          66.8355   91.8683   13.3349 C.ar    1  UNL1        0.0199
     21 C          68.0779   92.3832   13.9993 C.ar    1  UNL1       -0.0029
     22 O          63.9978   85.7539   13.8741 O.3     1  UNL1       -0.4535
     23 C          63.6198   84.3135   13.6939 C.ar    1  UNL1        0.1453
     24 C          62.5091   83.7219   14.5101 C.ar    1  UNL1        0.0375
     25 C          62.1312   82.2815   14.3299 C.ar    1  UNL1        0.0031
     26 C          62.8640   81.4328   13.3336 C.ar    1  UNL1        0.0002
     27 C          63.9747   82.0244   12.5174 C.ar    1  UNL1        0.0031
     28 C          64.3526   83.4648   12.6976 C.ar    1  UNL1        0.0375
@<TRIPOS>UNITY_ATOM_ATTR
8 1
charge -1
@<TRIPOS>BOND
     1    15    16    1
     2    16    17   ar
     3    17    18   ar
     4    18    19   ar
     5    19    12    1
     6    12    13    2
     7    12    14    2
     8    12    10    1
     9    10     1    1
    10     1     2   ar
    11     2     3   ar
    12     3    22    1
    13    22    23    1
    14    23    24   ar
    15    24    25   ar
    16    25    26   ar
    17    26    27   ar
    18    27    28   ar
    19     3     4   ar
    20     4     5   ar
    21     5     6   ar
    22     6     7    1
    23     7     8   ar
    24     7     9   ar
    25    19    20   ar
    26    20    21   ar
    27    21    16   ar
    28     6     1   ar
    29    28    23   ar
    30    10    11    1
@<TRIPOS>MOLECULE
*****
 28 30 0 0 0
SMALL
GASTEIGER

@<TRIPOS>ATOM
      1 C          63.7699   87.8132   14.6996 C.ar    1  UNL1        0.0689
      2 C          64.1850   89.2103   14.3451 C.ar    1  UNL1        0.0534
      3 C          64.0631   90.3091   15.3590 C.ar    1  UNL1        0.1466
      4 C          63.5260   90.0106   16.7274 C.ar    1  UNL1        0.0376
      5 C          63.1109   88.6135   17.0819 C.ar    1  UNL1        0.0055
      6 C          63.2328   87.5148   16.0680 C.ar    1  UNL1        0.0288
      7 C          62.8176   86.1177   16.4225 C.2     1  UNL1        0.0741
      8 O          61.5461   85.8832   17.1831 O.co2   1  UNL1       -0.5446
      9 O          63.6739   84.9550   16.0165 O.co2   1  UNL1       -0.5446
     10 N          63.8918   86.7145   13.6857 N.pl3   1  UNL1       -0.2149
     11 H          64.5623   86.0040   13.8080 H       1  UNL1        0.1737
     12 S          62.9923   86.6983   12.4855 S.O2    1  UNL1        0.0736
     13 O          63.2986   88.1454   12.2364 O.2     1  UNL1       -0.1499
     14 O          62.6860   85.2512   12.7347 O.2     1  UNL1       -0.1499
     15 C          59.3939   86.6338    7.6847 C.3     1  UNL1        0.0310
     16 C          60.2935   86.6499    8.8849 C.ar    1  UNL1       -0.0218
     17 C          60.0273   87.6069   10.0089 C.ar    1  UNL1       -0.0029
     18 C          60.9269   87.6230   11.2091 C.ar    1  UNL1        0.0199
     19 C          62.0926   86.6821   11.2853 C.ar    1  UNL1        0.1251
     20 C          62.3588   85.7252   10.1613 C.ar    1  UNL1        0.0199
     21 C          61.4592   85.7090    8.9611 C.ar    1  UNL1       -0.0029
     22 O          64.4782   91.7062   15.0045 O.3     1  UNL1       -0.4535
     23 C          65.9318   92.0766   14.9931 C.ar    1  UNL1        0.1453
     24 C          66.5319   92.7951   16.1651 C.ar    1  UNL1        0.0375
     25 C          67.9853   93.1655   16.1537 C.ar    1  UNL1        0.0031
     26 C          68.8388   92.8173   14.9703 C.ar    1  UNL1        0.0002
     27 C          68.2387   92.0988   13.7983 C.ar    1  UNL1        0.0031
     28 C          66.7852   91.7285   13.8097 C.ar    1  UNL1        0.0375
@<TRIPOS>UNITY_ATOM_ATTR
8 1
charge -1
@<TRIPOS>BOND
     1    15    16    1
     2    16    17   ar
     3    17    18   ar
     4    18    19   ar
     5    19    12    1
     6    12    13    2
     7    12    14    2
     8    12    10    1
     9    10     1    1
    10     1     2   ar
    11     2     3   ar
    12     3    22    1
    13    22    23    1
    14    23    24   ar
    15    24    25   ar
    16    25    26   ar
    17    26    27   ar
    18    27    28   ar
    19     3     4   ar
    20     4     5   ar
    21     5     6   ar
    22     6     7    1
    23     7     8   ar
    24     7     9   ar
    25    19    20   ar
    26    20    21   ar
    27    21    16   ar
    28     6     1   ar
    29    28    23   ar
    30    10    11    1
@<TRIPOS>MOLECULE
*****
 28 30 0 0 0
SMALL
GASTEIGER

@<TRIPOS>ATOM
      1 C          61.6082   88.0111    9.6571 C.ar    1  UNL1        0.0689
      2 C          62.5165   88.5527   10.7210 C.ar    1  UNL1        0.0534
      3 C          62.2696   89.9164   11.2951 C.ar    1  UNL1        0.1466
      4 C          61.1146   90.7385   10.8052 C.ar    1  UNL1        0.0376
      5 C          60.2063   90.1969    9.7414 C.ar    1  UNL1        0.0055
      6 C          60.4531   88.8333    9.1673 C.ar    1  UNL1        0.0288
      7 C          59.5449   88.2918    8.1034 C.2     1  UNL1        0.0741
      8 O          58.9141   86.9413    8.2719 O.co2   1  UNL1       -0.5446
      9 O          59.2674   89.1007    6.8711 O.co2   1  UNL1       -0.5446
     10 N          61.8550   86.6475    9.0831 N.pl3   1  UNL1       -0.2149
     11 H          61.7211   86.4868    8.1211 H       1  UNL1        0.1737
     12 S          62.3059   85.5288    9.9747 S.O2    1  UNL1        0.0736
     13 O          63.3409   85.1385    8.9616 O.2     1  UNL1       -0.1499
     14 O          61.2710   85.9192   10.9878 O.2     1  UNL1       -0.1499
     15 C          64.1097   81.0538   13.5415 C.3     1  UNL1        0.0310
     16 C          63.6588   82.1725   12.6498 C.ar    1  UNL1       -0.0218
     17 C          62.9093   83.3365   13.2274 C.ar    1  UNL1       -0.0029
     18 C          62.4583   84.4552   12.3357 C.ar    1  UNL1        0.0199
     19 C          62.7569   84.4100   10.8664 C.ar    1  UNL1        0.1251
     20 C          63.5063   83.2462   10.2888 C.ar    1  UNL1        0.0199
     21 C          63.9573   82.1274   11.1805 C.ar    1  UNL1       -0.0029
     22 O          63.1779   90.4579   12.3589 O.3     1  UNL1       -0.4535
     23 C          63.3973   89.6822   13.6239 C.ar    1  UNL1        0.1453
     24 C          63.9817   88.3020   13.5656 C.ar    1  UNL1        0.0375
     25 C          64.2011   87.5263   14.8305 C.ar    1  UNL1        0.0031
     26 C          63.8360   88.1309   16.1539 C.ar    1  UNL1        0.0002
     27 C          63.2516   89.5111   16.2123 C.ar    1  UNL1        0.0031
     28 C          63.0322   90.2867   14.9473 C.ar    1  UNL1        0.0375
@<TRIPOS>UNITY_ATOM_ATTR
8 1
charge -1
@<TRIPOS>BOND
     1    15    16    1
     2    16    17   ar
     3    17    18   ar
     4    18    19   ar
     5    19    12    1
     6    12    13    2
     7    12    14    2
     8    12    10    1
     9    10     1    1
    10     1     2   ar
    11     2     3   ar
    12     3    22    1
    13    22    23    1
    14    23    24   ar
    15    24    25   ar
    16    25    26   ar
    17    26    27   ar
    18    27    28   ar
    19     3     4   ar
    20     4     5   ar
    21     5     6   ar
    22     6     7    1
    23     7     8   ar
    24     7     9   ar
    25    19    20   ar
    26    20    21   ar
    27    21    16   ar
    28     6     1   ar
    29    28    23   ar
    30    10    11    1
@<TRIPOS>MOLECULE
*****
 28 30 0 0 0
SMALL
GASTEIGER

@<TRIPOS>ATOM
      1 C          63.7906   87.8747   14.4048 C.ar    1  UNL1        0.0689
      2 C          63.9596   86.3842   14.3949 C.ar    1  UNL1        0.0534
      3 C          63.8064   85.6035   15.6666 C.ar    1  UNL1        0.1466
      4 C          63.4842   86.3133   16.9481 C.ar    1  UNL1        0.0376
      5 C          63.3152   87.8037   16.9581 C.ar    1  UNL1        0.0055
      6 C          63.4684   88.5844   15.6865 C.ar    1  UNL1        0.0288
      7 C          63.2994   90.0748   15.6965 C.2     1  UNL1        0.0741
      8 O          63.3054   90.8216   16.9974 O.co2   1  UNL1       -0.5446
      9 O          63.1244   90.8184   14.4056 O.co2   1  UNL1       -0.5446
     10 N          63.9438   88.6554   13.1332 N.pl3   1  UNL1       -0.2149
     11 H          64.6751   89.3081   13.0415 H       1  UNL1        0.1737
     12 S          62.9829   88.4415   12.0015 S.O2    1  UNL1        0.0736
     13 O          62.8628   86.9942   12.3770 O.2     1  UNL1       -0.1499
     14 O          63.1031   89.8887   11.6260 O.2     1  UNL1       -0.1499
     15 C          59.1392   87.5856    7.4745 C.3     1  UNL1        0.0310
     16 C          60.1001   87.7996    8.6062 C.ar    1  UNL1       -0.0218
     17 C          60.6889   86.6209    9.3232 C.ar    1  UNL1       -0.0029
     18 C          61.6498   86.8349   10.4549 C.ar    1  UNL1        0.0199
     19 C          62.0220   88.2275   10.8697 C.ar    1  UNL1        0.1251
     20 C          61.4332   89.4062   10.1528 C.ar    1  UNL1        0.0199
     21 C          60.4723   89.1923    9.0210 C.ar    1  UNL1       -0.0029
     22 O          63.9753   84.1131   15.6566 O.3     1  UNL1       -0.4535
     23 C          63.5948   83.3233   14.4394 C.ar    1  UNL1        0.1453
     24 C          62.3826   82.4403   14.4672 C.ar    1  UNL1        0.0375
     25 C          62.0020   81.6505   13.2500 C.ar    1  UNL1        0.0031
     26 C          62.8337   81.7437   12.0052 C.ar    1  UNL1        0.0002
     27 C          64.0459   82.6268   11.9775 C.ar    1  UNL1        0.0031
     28 C          64.4264   83.4165   13.1946 C.ar    1  UNL1        0.0375
@<TRIPOS>UNITY_ATOM_ATTR
8 1
charge -1
@<TRIPOS>BOND
     1    15    16    1
     2    16    17   ar
     3    17    18   ar
     4    18    19   ar
     5    19    12    1
     6    12    13    2
     7    12    14    2
     8    12    10    1
     9    10     1    1
    10     1     2   ar
    11     2     3   ar
    12     3    22    1
    13    22    23    1
    14    23    24   ar
    15    24    25   ar
    16    25    26   ar
    17    26    27   ar
    18    27    28   ar
    19     3     4   ar
    20     4     5   ar
    21     5     6   ar
    22     6     7    1
    23     7     8   ar
    24     7     9   ar
    25    19    20   ar
    26    20    21   ar
    27    21    16   ar
    28     6     1   ar
    29    28    23   ar
    30    10    11    1
