@<TRIPOS>MOLECULE
*****
 29 33 0 0 0
SMALL
GASTEIGER

@<TRIPOS>ATOM
      1 C          62.4488   85.6643   12.2287 C.ar    1  UNL1        0.0004
      2 C          61.6408   85.6862   10.9652 C.ar    1  UNL1        0.0031
      3 C          61.5076   86.9585   10.1821 C.ar    1  UNL1        0.0370
      4 C          62.1825   88.2090   10.6625 C.ar    1  UNL1        0.1415
      5 C          62.9905   88.1872   11.9260 C.ar    1  UNL1        0.0699
      6 C          63.1237   86.9148   12.7091 C.ar    1  UNL1        0.0061
      7 C          63.7389   89.3123   12.5771 C.ar    1  UNL1        0.1718
      8 N          64.5156   89.1600   13.8513 N.ar    1  UNL1       -0.1258
      9 N          65.1208   90.4908   14.1871 N.ar    1  UNL1       -0.0913
     10 C          64.7181   91.4655   13.1206 C.ar    1  UNL1        0.3248
     11 N          63.8640   90.7372   12.1255 N.ar    1  UNL1       -0.2613
     12 C          63.2717   91.3889   10.9113 C.3     1  UNL1        0.1592
     13 C          62.4079   90.7767    9.8487 C.3     1  UNL1        0.2299
     14 O          61.9232   89.3614    9.7380 O.3     1  UNL1       -0.4733
     15 C          62.7355   80.4780   12.3732 C.3     1  UNL1        0.0521
     16 C          62.7253   81.7988   13.0842 C.ar    1  UNL1        0.0594
     17 C          62.5922   83.0712   12.3010 C.ar    1  UNL1        0.0147
     18 C          62.5820   84.3919   13.0119 C.ar    1  UNL1        0.0027
     19 C          62.7050   84.4403   14.5061 C.ar    1  UNL1        0.0207
     20 C          62.8382   83.1680   15.2893 C.ar    1  UNL1        0.0984
     21 N          62.8483   81.8472   14.5783 N.ar    1  UNL1       -0.2481
     22 O          65.1021   92.9143   13.0598 O.3     1  UNL1       -0.4224
     23 C          65.9372   93.4218   11.9218 C.ar    1  UNL1        0.1495
     24 C          65.9576   94.8871   11.6018 C.ar    1  UNL1        0.0377
     25 C          66.7928   95.3946   10.4637 C.ar    1  UNL1        0.0040
     26 C          67.6075   94.4368    9.6460 C.ar    1  UNL1        0.0116
     27 C          67.5870   92.9715    9.9660 C.ar    1  UNL1        0.0607
     28 CL         68.4017   92.0137    9.1482 Cl      1  UNL1       -0.0821
     29 C          66.7518   92.4640   11.1040 C.ar    1  UNL1        0.0490
@<TRIPOS>BOND
     1    15    16    1
     2    16    17   ar
     3    17    18   ar
     4    18     1    1
     5     1     2   ar
     6     2     3   ar
     7     3     4   ar
     8     4     5   ar
     9     5     6   ar
    10     5     7    1
    11     7     8   ar
    12     8     9   ar
    13     9    10   ar
    14    10    22    1
    15    22    23    1
    16    23    24   ar
    17    24    25   ar
    18    25    26   ar
    19    26    27   ar
    20    27    28    1
    21    27    29   ar
    22    10    11   ar
    23    11    12    1
    24    12    13    1
    25    13    14    1
    26    18    19   ar
    27    19    20   ar
    28    20    21   ar
    29    21    16   ar
    30     6     1   ar
    31    11     7   ar
    32    14     4    1
    33    29    23   ar
@<TRIPOS>MOLECULE
*****
 29 33 0 0 0
SMALL
GASTEIGER

@<TRIPOS>ATOM
      1 C          62.5578   84.8608   11.0441 C.ar    1  UNL1        0.0004
      2 C          61.9833   85.3187    9.7364 C.ar    1  UNL1        0.0031
      3 C          61.8753   86.7845    9.4370 C.ar    1  UNL1        0.0370
      4 C          62.3416   87.7924   10.4454 C.ar    1  UNL1        0.1415
      5 C          62.9160   87.3344   11.7531 C.ar    1  UNL1        0.0699
      6 C          63.0241   85.8686   12.0525 C.ar    1  UNL1        0.0061
      7 C          63.4358   88.1653   12.8885 C.ar    1  UNL1        0.1718
      8 N          63.9894   87.5812   14.1544 N.ar    1  UNL1       -0.1258
      9 N          64.4054   88.7145   15.0447 N.ar    1  UNL1       -0.0913
     10 C          64.1088   89.9990   14.3292 C.ar    1  UNL1        0.3248
     11 N          63.5097   89.6597   12.9966 N.ar    1  UNL1       -0.2613
     12 C          63.0819   90.6920   11.9959 C.3     1  UNL1        0.1592
     13 C          62.4746   90.4850   10.6401 C.3     1  UNL1        0.2299
     14 O          62.1452   89.1945    9.9500 O.3     1  UNL1       -0.4733
     15 C          61.7201   80.8456   14.2343 C.3     1  UNL1        0.0521
     16 C          62.2470   81.3873   12.9387 C.ar    1  UNL1        0.0594
     17 C          62.1389   82.8532   12.6392 C.ar    1  UNL1        0.0147
     18 C          62.6659   83.3949   11.3435 C.ar    1  UNL1        0.0027
     19 C          63.3009   82.4707   10.3472 C.ar    1  UNL1        0.0207
     20 C          63.4091   81.0049   10.6466 C.ar    1  UNL1        0.0984
     21 N          62.8821   80.4632   11.9423 N.ar    1  UNL1       -0.2481
     22 O          64.3664   91.3804   14.8542 O.3     1  UNL1       -0.4224
     23 C          65.7708   91.8998   14.9417 C.ar    1  UNL1        0.1495
     24 C          66.1842   92.7518   16.1050 C.ar    1  UNL1        0.0377
     25 C          67.5887   93.2712   16.1925 C.ar    1  UNL1        0.0040
     26 C          68.5797   92.9385   15.1168 C.ar    1  UNL1        0.0116
     27 C          68.1664   92.0865   13.9536 C.ar    1  UNL1        0.0607
     28 CL         69.1574   91.7538   12.8779 Cl      1  UNL1       -0.0821
     29 C          66.7619   91.5671   13.8661 C.ar    1  UNL1        0.0490
@<TRIPOS>BOND
     1    15    16    1
     2    16    17   ar
     3    17    18   ar
     4    18     1    1
     5     1     2   ar
     6     2     3   ar
     7     3     4   ar
     8     4     5   ar
     9     5     6   ar
    10     5     7    1
    11     7     8   ar
    12     8     9   ar
    13     9    10   ar
    14    10    22    1
    15    22    23    1
    16    23    24   ar
    17    24    25   ar
    18    25    26   ar
    19    26    27   ar
    20    27    28    1
    21    27    29   ar
    22    10    11   ar
    23    11    12    1
    24    12    13    1
    25    13    14    1
    26    18    19   ar
    27    19    20   ar
    28    20    21   ar
    29    21    16   ar
    30     6     1   ar
    31    11     7   ar
    32    14     4    1
    33    29    23   ar
@<TRIPOS>MOLECULE
*****
 29 33 0 0 0
SMALL
GASTEIGER

@<TRIPOS>ATOM
      1 C          62.0943   85.8943   10.3976 C.ar    1  UNL1        0.0004
      2 C          62.3786   84.6547   11.1931 C.ar    1  UNL1        0.0031
      3 C          62.9952   84.7633   12.5561 C.ar    1  UNL1        0.0370
      4 C          63.3275   86.1114   13.1238 C.ar    1  UNL1        0.1415
      5 C          63.0432   87.3509   12.3284 C.ar    1  UNL1        0.0699
      6 C          62.4266   87.2424   10.9653 C.ar    1  UNL1        0.0061
      7 C          63.2942   88.7813   12.7039 C.ar    1  UNL1        0.1718
      8 N          62.9620   89.9405   11.8117 N.ar    1  UNL1       -0.1258
      9 N          63.3540   91.2010   12.5241 N.ar    1  UNL1       -0.0913
     10 C          63.9285   90.8208   13.8565 C.ar    1  UNL1        0.3248
     11 N          63.8916   89.3254   13.9677 N.ar    1  UNL1       -0.2613
     12 C          64.3854   88.5735   15.1680 C.3     1  UNL1        0.1592
     13 C          64.4039   87.0919   15.4011 C.3     1  UNL1        0.2299
     14 O          63.9330   85.9961   14.4912 O.3     1  UNL1       -0.4733
     15 C          62.3065   84.2208    5.4829 C.3     1  UNL1        0.0521
     16 C          61.5838   84.9490    6.5771 C.ar    1  UNL1        0.0594
     17 C          62.2004   85.0575    7.9403 C.ar    1  UNL1        0.0147
     18 C          61.4777   85.7857    9.0345 C.ar    1  UNL1        0.0027
     19 C          60.1384   86.4054    8.7657 C.ar    1  UNL1        0.0207
     20 C          59.5218   86.2969    7.4026 C.ar    1  UNL1        0.0984
     21 N          60.2445   85.5687    6.3083 N.ar    1  UNL1       -0.2481
     22 O          64.4487   91.7696   14.8955 O.3     1  UNL1       -0.4224
     23 C          65.9130   92.0896   14.9531 C.ar    1  UNL1        0.1495
     24 C          66.4755   92.8174   16.1379 C.ar    1  UNL1        0.0377
     25 C          67.9400   93.1373   16.1955 C.ar    1  UNL1        0.0040
     26 C          68.8416   92.7294   15.0684 C.ar    1  UNL1        0.0116
     27 C          68.2791   92.0016   13.8835 C.ar    1  UNL1        0.0607
     28 CL         69.1807   91.5938   12.7564 Cl      1  UNL1       -0.0821
     29 C          66.8147   91.6817   13.8259 C.ar    1  UNL1        0.0490
@<TRIPOS>BOND
     1    15    16    1
     2    16    17   ar
     3    17    18   ar
     4    18     1    1
     5     1     2   ar
     6     2     3   ar
     7     3     4   ar
     8     4     5   ar
     9     5     6   ar
    10     5     7    1
    11     7     8   ar
    12     8     9   ar
    13     9    10   ar
    14    10    22    1
    15    22    23    1
    16    23    24   ar
    17    24    25   ar
    18    25    26   ar
    19    26    27   ar
    20    27    28    1
    21    27    29   ar
    22    10    11   ar
    23    11    12    1
    24    12    13    1
    25    13    14    1
    26    18    19   ar
    27    19    20   ar
    28    20    21   ar
    29    21    16   ar
    30     6     1   ar
    31    11     7   ar
    32    14     4    1
    33    29    23   ar
@<TRIPOS>MOLECULE
*****
 29 33 0 0 0
SMALL
GASTEIGER

@<TRIPOS>ATOM
      1 C          64.3086   90.8185   12.3850 C.ar    1  UNL1        0.0004
      2 C          63.4674   90.9711   11.1526 C.ar    1  UNL1        0.0031
      3 C          62.6195   89.8287   10.6772 C.ar    1  UNL1        0.0370
      4 C          62.6127   88.5339   11.4343 C.ar    1  UNL1        0.1415
      5 C          63.4539   88.3813   12.6668 C.ar    1  UNL1        0.0699
      6 C          64.3019   89.5236   13.1422 C.ar    1  UNL1        0.0061
      7 C          63.5926   87.1861   13.5625 C.ar    1  UNL1        0.1718
      8 N          64.4747   87.1603   14.7754 N.ar    1  UNL1       -0.1258
      9 N          64.3515   85.8064   15.4094 N.ar    1  UNL1       -0.0913
     10 C          63.3934   84.9955   14.5883 C.ar    1  UNL1        0.3248
     11 N          62.9243   85.8482   13.4468 N.ar    1  UNL1       -0.2613
     12 C          61.9523   85.3751   12.4069 C.3     1  UNL1        0.1592
     13 C          61.4084   86.1230   11.2259 C.3     1  UNL1        0.2299
     14 O          61.7024   87.5288   10.7931 O.3     1  UNL1       -0.4733
     15 C          67.1912   93.0457   16.0905 C.3     1  UNL1        0.0521
     16 C          66.5980   93.0745   14.7132 C.ar    1  UNL1        0.0594
     17 C          65.7499   91.9321   14.2378 C.ar    1  UNL1        0.0147
     18 C          65.1566   91.9609   12.8604 C.ar    1  UNL1        0.0027
     19 C          65.4113   93.1320   11.9584 C.ar    1  UNL1        0.0207
     20 C          66.2593   94.2743   12.4338 C.ar    1  UNL1        0.0984
     21 N          66.8526   94.2456   13.8112 N.ar    1  UNL1       -0.2481
     22 O          62.9773   83.5804   14.8608 O.3     1  UNL1       -0.4224
     23 C          62.9894   82.5685   13.7536 C.ar    1  UNL1        0.1495
     24 C          62.3410   81.2307   13.9531 C.ar    1  UNL1        0.0377
     25 C          62.3532   80.2188   12.8457 C.ar    1  UNL1        0.0040
     26 C          63.0138   80.5448   11.5392 C.ar    1  UNL1        0.0116
     27 C          63.6622   81.8826   11.3397 C.ar    1  UNL1        0.0607
     28 CL         64.3229   82.2086   10.0331 Cl      1  UNL1       -0.0821
     29 C          63.6501   82.8945   12.4470 C.ar    1  UNL1        0.0490
@<TRIPOS>BOND
     1    15    16    1
     2    16    17   ar
     3    17    18   ar
     4    18     1    1
     5     1     2   ar
     6     2     3   ar
     7     3     4   ar
     8     4     5   ar
     9     5     6   ar
    10     5     7    1
    11     7     8   ar
    12     8     9   ar
    13     9    10   ar
    14    10    22    1
    15    22    23    1
    16    23    24   ar
    17    24    25   ar
    18    25    26   ar
    19    26    27   ar
    20    27    28    1
    21    27    29   ar
    22    10    11   ar
    23    11    12    1
    24    12    13    1
    25    13    14    1
    26    18    19   ar
    27    19    20   ar
    28    20    21   ar
    29    21    16   ar
    30     6     1   ar
    31    11     7   ar
    32    14     4    1
    33    29    23   ar
@<TRIPOS>MOLECULE
*****
 29 33 0 0 0
SMALL
GASTEIGER

@<TRIPOS>ATOM
      1 C          59.6112   88.9022    7.1728 C.ar    1  UNL1        0.0004
      2 C          59.2651   87.4590    6.9552 C.ar    1  UNL1        0.0031
      3 C          59.7746   86.4145    7.9035 C.ar    1  UNL1        0.0370
      4 C          60.6302   86.8131    9.0693 C.ar    1  UNL1        0.1415
      5 C          60.9762   88.2563    9.2868 C.ar    1  UNL1        0.0699
      6 C          60.4667   89.3009    8.3386 C.ar    1  UNL1        0.0061
      7 C          61.8082   88.8646   10.3767 C.ar    1  UNL1        0.1718
      8 N          62.0822   90.3354   10.4840 N.ar    1  UNL1       -0.1258
      9 N          62.9429   90.5597   11.6919 N.ar    1  UNL1       -0.0913
     10 C          63.2008   89.2274   12.3310 C.ar    1  UNL1        0.3248
     11 N          62.4995   88.1798   11.5183 N.ar    1  UNL1       -0.2613
     12 C          62.5297   86.7177   11.8518 C.3     1  UNL1        0.1592
     13 C          61.8760   85.5792   11.1263 C.3     1  UNL1        0.2299
     14 O          61.0306   85.6217    9.8879 O.3     1  UNL1       -0.4733
     15 C          60.5192   92.5550    3.5903 C.3     1  UNL1        0.0521
     16 C          59.5557   91.7733    4.4333 C.ar    1  UNL1        0.0594
     17 C          60.0652   90.7286    5.3815 C.ar    1  UNL1        0.0147
     18 C          59.1017   89.9469    6.2245 C.ar    1  UNL1        0.0027
     19 C          57.6287   90.2098    6.1192 C.ar    1  UNL1        0.0207
     20 C          57.1191   91.2544    5.1710 C.ar    1  UNL1        0.0984
     21 N          58.0827   92.0362    4.3280 N.ar    1  UNL1       -0.2481
     22 O          64.0168   88.9854   13.5662 O.3     1  UNL1       -0.4224
     23 C          64.4363   90.1405   14.4263 C.ar    1  UNL1        0.1495
     24 C          63.7221   90.4128   15.7169 C.ar    1  UNL1        0.0377
     25 C          64.1417   91.5679   16.5770 C.ar    1  UNL1        0.0040
     26 C          65.2754   92.4506   16.1465 C.ar    1  UNL1        0.0116
     27 C          65.9896   92.1784   14.8558 C.ar    1  UNL1        0.0607
     28 CL         67.1233   93.0611   14.4253 Cl      1  UNL1       -0.0821
     29 C          65.5700   91.0232   13.9957 C.ar    1  UNL1        0.0490
@<TRIPOS>BOND
     1    15    16    1
     2    16    17   ar
     3    17    18   ar
     4    18     1    1
     5     1     2   ar
     6     2     3   ar
     7     3     4   ar
     8     4     5   ar
     9     5     6   ar
    10     5     7    1
    11     7     8   ar
    12     8     9   ar
    13     9    10   ar
    14    10    22    1
    15    22    23    1
    16    23    24   ar
    17    24    25   ar
    18    25    26   ar
    19    26    27   ar
    20    27    28    1
    21    27    29   ar
    22    10    11   ar
    23    11    12    1
    24    12    13    1
    25    13    14    1
    26    18    19   ar
    27    19    20   ar
    28    20    21   ar
    29    21    16   ar
    30     6     1   ar
    31    11     7   ar
    32    14     4    1
    33    29    23   ar
@<TRIPOS>MOLECULE
*****
 29 33 0 0 0
SMALL
GASTEIGER

@<TRIPOS>ATOM
      1 C          64.0389   91.3356   11.4364 C.ar    1  UNL1        0.0004
      2 C          63.1960   91.5977   10.2237 C.ar    1  UNL1        0.0031
      3 C          62.2811   90.5301    9.7013 C.ar    1  UNL1        0.0370
      4 C          62.2091   89.2003   10.3916 C.ar    1  UNL1        0.1415
      5 C          63.0521   88.9382   11.6042 C.ar    1  UNL1        0.0699
      6 C          63.9670   90.0058   12.1266 C.ar    1  UNL1        0.0061
      7 C          63.1323   87.6926   12.4361 C.ar    1  UNL1        0.1718
      8 N          64.0229   87.5556   13.6353 N.ar    1  UNL1       -0.1258
      9 N          63.8303   86.1797   14.2010 N.ar    1  UNL1       -0.0913
     10 C          62.8206   85.4665   13.3515 C.ar    1  UNL1        0.3248
     11 N          62.3892   86.4014   12.2607 N.ar    1  UNL1       -0.2613
     12 C          61.3824   86.0370   11.2102 C.3     1  UNL1        0.1592
     13 C          60.8701   86.8736   10.0755 C.3     1  UNL1        0.2299
     14 O          61.2381   88.2815    9.7112 O.3     1  UNL1       -0.4733
     15 C          66.9947   93.2570   15.2537 C.3     1  UNL1        0.0521
     16 C          66.4318   93.3640   13.8675 C.ar    1  UNL1        0.0594
     17 C          65.5168   92.2963   13.3451 C.ar    1  UNL1        0.0147
     18 C          64.9539   92.4033   11.9588 C.ar    1  UNL1        0.0027
     19 C          65.3059   93.5780   11.0950 C.ar    1  UNL1        0.0207
     20 C          66.2209   94.6457   11.6174 C.ar    1  UNL1        0.0984
     21 N          66.7838   94.5387   13.0037 N.ar    1  UNL1       -0.2481
     22 O          62.3287   84.0643   13.5567 O.3     1  UNL1       -0.4224
     23 C          62.7137   82.9851   12.5887 C.ar    1  UNL1        0.1495
     24 C          63.4226   83.3382   11.3148 C.ar    1  UNL1        0.0377
     25 C          63.8076   82.2589   10.3468 C.ar    1  UNL1        0.0040
     26 C          63.4837   80.8267   10.6528 C.ar    1  UNL1        0.0116
     27 C          62.7748   80.4735   11.9266 C.ar    1  UNL1        0.0607
     28 CL         62.4509   79.0413   12.2325 Cl      1  UNL1       -0.0821
     29 C          62.3898   81.5529   12.8946 C.ar    1  UNL1        0.0490
@<TRIPOS>BOND
     1    15    16    1
     2    16    17   ar
     3    17    18   ar
     4    18     1    1
     5     1     2   ar
     6     2     3   ar
     7     3     4   ar
     8     4     5   ar
     9     5     6   ar
    10     5     7    1
    11     7     8   ar
    12     8     9   ar
    13     9    10   ar
    14    10    22    1
    15    22    23    1
    16    23    24   ar
    17    24    25   ar
    18    25    26   ar
    19    26    27   ar
    20    27    28    1
    21    27    29   ar
    22    10    11   ar
    23    11    12    1
    24    12    13    1
    25    13    14    1
    26    18    19   ar
    27    19    20   ar
    28    20    21   ar
    29    21    16   ar
    30     6     1   ar
    31    11     7   ar
    32    14     4    1
    33    29    23   ar
@<TRIPOS>MOLECULE
*****
 29 33 0 0 0
SMALL
GASTEIGER

@<TRIPOS>ATOM
      1 C          59.5955   89.0333    7.3665 C.ar    1  UNL1        0.0004
      2 C          59.2220   87.5811    7.3260 C.ar    1  UNL1        0.0031
      3 C          59.7905   86.6320    8.3388 C.ar    1  UNL1        0.0370
      4 C          60.7325   87.1350    9.3922 C.ar    1  UNL1        0.1415
      5 C          61.1060   88.5872    9.4327 C.ar    1  UNL1        0.0699
      6 C          60.5375   89.5363    8.4199 C.ar    1  UNL1        0.0061
      7 C          62.0206   89.2912   10.3906 C.ar    1  UNL1        0.1718
      8 N          62.3145   90.7606   10.3241 N.ar    1  UNL1       -0.1258
      9 N          63.2632   91.0945   11.4370 N.ar    1  UNL1       -0.0913
     10 C          63.5557   89.8314   12.1913 C.ar    1  UNL1        0.3248
     11 N          62.7878   88.7169   11.5447 N.ar    1  UNL1       -0.2613
     12 C          62.8296   87.2968   12.0258 C.3     1  UNL1        0.1592
     13 C          62.1148   86.1002   11.4717 C.3     1  UNL1        0.2299
     14 O          61.1814   86.0282   10.2996 O.3     1  UNL1       -0.4733
     15 C          60.2935   92.5981    3.6510 C.3     1  UNL1        0.0521
     16 C          59.3760   91.7649    4.4959 C.ar    1  UNL1        0.0594
     17 C          59.9445   90.8157    5.5088 C.ar    1  UNL1        0.0147
     18 C          59.0269   89.9825    6.3536 C.ar    1  UNL1        0.0027
     19 C          57.5409   90.0985    6.1857 C.ar    1  UNL1        0.0207
     20 C          56.9724   91.0477    5.1729 C.ar    1  UNL1        0.0984
     21 N          57.8899   91.8809    4.3280 N.ar    1  UNL1       -0.2481
     22 O          64.4578   89.7051   13.3831 O.3     1  UNL1       -0.4224
     23 C          64.0171   88.9103   14.5765 C.ar    1  UNL1        0.1495
     24 C          63.3330   89.5949   15.7225 C.ar    1  UNL1        0.0377
     25 C          62.8924   88.8000   16.9159 C.ar    1  UNL1        0.0040
     26 C          63.1359   87.3207   16.9631 C.ar    1  UNL1        0.0116
     27 C          63.8200   86.6361   15.8171 C.ar    1  UNL1        0.0607
     28 CL         64.0635   85.1568   15.8643 Cl      1  UNL1       -0.0821
     29 C          64.2606   87.4310   14.6237 C.ar    1  UNL1        0.0490
@<TRIPOS>BOND
     1    15    16    1
     2    16    17   ar
     3    17    18   ar
     4    18     1    1
     5     1     2   ar
     6     2     3   ar
     7     3     4   ar
     8     4     5   ar
     9     5     6   ar
    10     5     7    1
    11     7     8   ar
    12     8     9   ar
    13     9    10   ar
    14    10    22    1
    15    22    23    1
    16    23    24   ar
    17    24    25   ar
    18    25    26   ar
    19    26    27   ar
    20    27    28    1
    21    27    29   ar
    22    10    11   ar
    23    11    12    1
    24    12    13    1
    25    13    14    1
    26    18    19   ar
    27    19    20   ar
    28    20    21   ar
    29    21    16   ar
    30     6     1   ar
    31    11     7   ar
    32    14     4    1
    33    29    23   ar
@<TRIPOS>MOLECULE
*****
 29 33 0 0 0
SMALL
GASTEIGER

@<TRIPOS>ATOM
      1 C          64.4868   90.1879   13.8496 C.ar    1  UNL1        0.0004
      2 C          63.8098   90.7182   12.6207 C.ar    1  UNL1        0.0031
      3 C          63.0378   89.7904   11.7302 C.ar    1  UNL1        0.0370
      4 C          62.9428   88.3322   12.0687 C.ar    1  UNL1        0.1415
      5 C          63.6197   87.8018   13.2976 C.ar    1  UNL1        0.0699
      6 C          64.3917   88.7297   14.1881 C.ar    1  UNL1        0.0061
      7 C          63.6504   86.3941   13.8147 C.ar    1  UNL1        0.1718
      8 N          64.3695   85.9893   15.0673 N.ar    1  UNL1       -0.1258
      9 N          64.1753   84.5141   15.2573 N.ar    1  UNL1       -0.0913
     10 C          63.3361   84.0072   14.1221 C.ar    1  UNL1        0.3248
     11 N          63.0117   85.1690   13.2305 N.ar    1  UNL1       -0.2613
     12 C          62.1846   85.0492   11.9849 C.3     1  UNL1        0.1592
     13 C          61.7918   86.1246   11.0159 C.3     1  UNL1        0.2299
     14 O          62.1293   87.5858   11.0532 O.3     1  UNL1       -0.4733
     15 C          68.8913   92.6928   15.0012 C.3     1  UNL1        0.0521
     16 C          67.4611   92.3682   15.3160 C.ar    1  UNL1        0.0594
     17 C          66.6890   91.4403   14.4254 C.ar    1  UNL1        0.0147
     18 C          65.2588   91.1158   14.7402 C.ar    1  UNL1        0.0027
     19 C          64.6006   91.7190   15.9455 C.ar    1  UNL1        0.0207
     20 C          65.3726   92.6469   16.8361 C.ar    1  UNL1        0.0984
     21 N          66.8029   92.9715   16.5213 N.ar    1  UNL1       -0.2481
     22 O          62.8982   82.5876   13.9148 O.3     1  UNL1       -0.4224
     23 C          63.1084   81.9241   12.5860 C.ar    1  UNL1        0.1495
     24 C          63.7303   82.6894   11.4557 C.ar    1  UNL1        0.0377
     25 C          63.9405   82.0259   10.1269 C.ar    1  UNL1        0.0040
     26 C          63.5287   80.5973    9.9285 C.ar    1  UNL1        0.0116
     27 C          62.9068   79.8320   11.0588 C.ar    1  UNL1        0.0607
     28 CL         62.4951   78.4034   10.8604 Cl      1  UNL1       -0.0821
     29 C          62.6967   80.4955   12.3876 C.ar    1  UNL1        0.0490
@<TRIPOS>BOND
     1    15    16    1
     2    16    17   ar
     3    17    18   ar
     4    18     1    1
     5     1     2   ar
     6     2     3   ar
     7     3     4   ar
     8     4     5   ar
     9     5     6   ar
    10     5     7    1
    11     7     8   ar
    12     8     9   ar
    13     9    10   ar
    14    10    22    1
    15    22    23    1
    16    23    24   ar
    17    24    25   ar
    18    25    26   ar
    19    26    27   ar
    20    27    28    1
    21    27    29   ar
    22    10    11   ar
    23    11    12    1
    24    12    13    1
    25    13    14    1
    26    18    19   ar
    27    19    20   ar
    28    20    21   ar
    29    21    16   ar
    30     6     1   ar
    31    11     7   ar
    32    14     4    1
    33    29    23   ar
@<TRIPOS>MOLECULE
*****
 29 33 0 0 0
SMALL
GASTEIGER

@<TRIPOS>ATOM
      1 C          61.7302   86.5146   10.3265 C.ar    1  UNL1        0.0004
      2 C          62.0415   85.1740   10.9231 C.ar    1  UNL1        0.0031
      3 C          62.7880   85.0860   12.2212 C.ar    1  UNL1        0.0370
      4 C          63.2232   86.3384   12.9225 C.ar    1  UNL1        0.1415
      5 C          62.9119   87.6789   12.3259 C.ar    1  UNL1        0.0699
      6 C          62.1654   87.7670   11.0279 C.ar    1  UNL1        0.0061
      7 C          63.2512   89.0403   12.8564 C.ar    1  UNL1        0.1718
      8 N          62.8800   90.3152   12.1587 N.ar    1  UNL1       -0.1258
      9 N          63.3851   91.4603   12.9857 N.ar    1  UNL1       -0.0913
     10 C          64.0684   90.8930   14.1945 C.ar    1  UNL1        0.3248
     11 N          63.9857   89.3974   14.1146 N.ar    1  UNL1       -0.2613
     12 C          64.5622   88.4813   15.1531 C.3     1  UNL1        0.1592
     13 C          64.5467   86.9818   15.1898 C.3     1  UNL1        0.2299
     14 O          63.9507   86.0282   14.1971 O.3     1  UNL1       -0.4733
     15 C          58.8765   89.2490    6.9531 C.3     1  UNL1        0.0521
     16 C          59.5568   87.9699    7.3417 C.ar    1  UNL1        0.0594
     17 C          60.3034   87.8818    8.6398 C.ar    1  UNL1        0.0147
     18 C          60.9837   86.6027    9.0284 C.ar    1  UNL1        0.0027
     19 C          60.9175   85.4117    8.1189 C.ar    1  UNL1        0.0207
     20 C          60.1710   85.4998    6.8209 C.ar    1  UNL1        0.0984
     21 N          59.4906   86.7789    6.4323 N.ar    1  UNL1       -0.2481
     22 O          64.7200   91.6828   15.2908 O.3     1  UNL1       -0.4224
     23 C          66.1722   92.0453   15.1927 C.ar    1  UNL1        0.1495
     24 C          66.8312   92.8088   16.3030 C.ar    1  UNL1        0.0377
     25 C          68.2835   93.1713   16.2049 C.ar    1  UNL1        0.0040
     26 C          69.0766   92.7703   14.9966 C.ar    1  UNL1        0.0116
     27 C          68.4176   92.0068   13.8863 C.ar    1  UNL1        0.0607
     28 CL         69.2107   91.6057   12.6780 Cl      1  UNL1       -0.0821
     29 C          66.9653   91.6443   13.9844 C.ar    1  UNL1        0.0490
@<TRIPOS>BOND
     1    15    16    1
     2    16    17   ar
     3    17    18   ar
     4    18     1    1
     5     1     2   ar
     6     2     3   ar
     7     3     4   ar
     8     4     5   ar
     9     5     6   ar
    10     5     7    1
    11     7     8   ar
    12     8     9   ar
    13     9    10   ar
    14    10    22    1
    15    22    23    1
    16    23    24   ar
    17    24    25   ar
    18    25    26   ar
    19    26    27   ar
    20    27    28    1
    21    27    29   ar
    22    10    11   ar
    23    11    12    1
    24    12    13    1
    25    13    14    1
    26    18    19   ar
    27    19    20   ar
    28    20    21   ar
    29    21    16   ar
    30     6     1   ar
    31    11     7   ar
    32    14     4    1
    33    29    23   ar
