@<TRIPOS>MOLECULE
*****
 31 35 0 0 0
SMALL
GASTEIGER

@<TRIPOS>ATOM
      1 C          63.5403   89.1336    9.7328 C.3     1  UNL1        0.1332
      2 N          62.4215   89.1423   10.7319 N.ar    1  UNL1       -0.2965
      3 C          62.4759   89.7287   12.1115 C.ar    1  UNL1        0.1670
      4 N          61.1398   89.5149   12.7590 N.ar    1  UNL1       -0.1290
      5 N          60.2598   88.7963   11.7796 N.ar    1  UNL1       -0.1330
      6 C          61.0519   88.5660   10.5268 C.ar    1  UNL1        0.1464
      7 C          63.6586   90.4095   12.7341 C.ar    1  UNL1        0.0465
      8 C          64.1594   91.7067   12.1715 C.ar    1  UNL1        0.0039
      9 C          65.3421   92.3874   12.7942 C.ar    1  UNL1        0.0017
     10 C          66.0241   91.7709   13.9795 C.ar    1  UNL1        0.0200
     11 C          65.5233   90.4738   14.5421 C.ar    1  UNL1        0.0130
     12 C          64.3406   89.7931   13.9195 C.ar    1  UNL1        0.0606
     13 CL         63.8397   88.4959   14.4821 Cl      1  UNL1       -0.0821
     14 C          67.2069   92.4517   14.6022 C.ar    1  UNL1        0.1005
     15 C          67.0094   93.3993   15.7480 C.ar    1  UNL1        0.1179
     16 N          68.1922   94.0801   16.3707 N.ar    1  UNL1       -0.2391
     17 C          69.5724   93.8132   15.8475 C.ar    1  UNL1        0.1195
     18 C          69.7698   92.8655   14.7016 C.ar    1  UNL1        0.1195
     19 N          68.5871   92.1848   14.0790 N.ar    1  UNL1       -0.2406
     20 C          60.5607   87.8799    9.2867 C.3     1  UNL1        0.0765
     21 C          59.7203   89.0778    8.9569 C.3     1  UNL1        0.0466
     22 C          59.2290   88.3917    7.7167 C.3     1  UNL1        0.1625
     23 F          58.2874   88.7536    6.6066 F       1  UNL1       -0.2372
     24 C          60.0695   87.1938    8.0465 C.3     1  UNL1        0.0466
     25 C          61.4011   86.6821    9.6165 C.ar    1  UNL1       -0.0158
     26 C          61.3677   86.0999   10.9985 C.ar    1  UNL1       -0.0030
     27 C          62.2081   84.9021   11.3283 C.ar    1  UNL1        0.0111
     28 C          63.0820   84.2863   10.2761 C.ar    1  UNL1        0.0577
     29 CL         63.9225   83.0884   10.6059 Cl      1  UNL1       -0.0822
     30 C          63.1154   84.8684    8.8940 C.ar    1  UNL1        0.0111
     31 C          62.2750   86.0663    8.5642 C.ar    1  UNL1       -0.0030
@<TRIPOS>BOND
     1     1     2    1
     2     2     3   ar
     3     3     7    1
     4     7     8   ar
     5     8     9   ar
     6     9    10   ar
     7    10    14    1
     8    14    15   ar
     9    15    16   ar
    10    16    17   ar
    11    17    18   ar
    12    18    19   ar
    13    10    11   ar
    14    11    12   ar
    15    12    13    1
    16     3     4   ar
    17     4     5   ar
    18     5     6   ar
    19     6    20    1
    20    20    25    1
    21    25    26   ar
    22    26    27   ar
    23    27    28   ar
    24    28    29    1
    25    28    30   ar
    26    30    31   ar
    27    20    21    1
    28    21    22    1
    29    22    23    1
    30    22    24    1
    31     6     2   ar
    32    24    20    1
    33    12     7   ar
    34    31    25   ar
    35    19    14   ar
@<TRIPOS>MOLECULE
*****
 31 35 0 0 0
SMALL
GASTEIGER

@<TRIPOS>ATOM
      1 C          65.1437   88.2826   14.9010 C.3     1  UNL1        0.1332
      2 N          64.3114   88.9297   13.8339 N.ar    1  UNL1       -0.2965
      3 C          63.4568   88.2164   12.8285 C.ar    1  UNL1        0.1670
      4 N          62.8049   89.2495   11.9581 N.ar    1  UNL1       -0.1290
      5 N          63.2565   90.6014   12.4256 N.ar    1  UNL1       -0.1330
      6 C          64.1876   90.4037   13.5850 C.ar    1  UNL1        0.1464
      7 C          63.2845   86.7307   12.7136 C.ar    1  UNL1        0.0465
      8 C          63.8457   85.8266   13.7708 C.ar    1  UNL1        0.0039
      9 C          63.6733   84.3410   13.6559 C.ar    1  UNL1        0.0017
     10 C          62.9397   83.7595   12.4838 C.ar    1  UNL1        0.0200
     11 C          62.3785   84.6636   11.4267 C.ar    1  UNL1        0.0130
     12 C          62.5509   86.1492   11.5416 C.ar    1  UNL1        0.0606
     13 CL         61.9897   87.0534   10.4844 Cl      1  UNL1       -0.0821
     14 C          62.7674   82.2738   12.3689 C.ar    1  UNL1        0.1005
     15 C          63.1079   81.5763   11.0854 C.ar    1  UNL1        0.1179
     16 N          62.9355   80.0907   10.9705 N.ar    1  UNL1       -0.2391
     17 C          62.4227   79.3026   12.1393 C.ar    1  UNL1        0.1195
     18 C          62.0822   80.0001   13.4228 C.ar    1  UNL1        0.1195
     19 N          62.2545   81.4857   13.5377 N.ar    1  UNL1       -0.2406
     20 C          64.8743   91.4894   14.3594 C.3     1  UNL1        0.0765
     21 C          64.0776   91.1250   15.5769 C.3     1  UNL1        0.0466
     22 C          64.7643   92.2107   16.3512 C.3     1  UNL1        0.1625
     23 F          64.6864   92.7207   17.7597 F       1  UNL1       -0.2372
     24 C          65.5611   92.5751   15.1337 C.3     1  UNL1        0.0466
     25 C          65.6711   91.8538   13.1419 C.ar    1  UNL1       -0.0158
     26 C          64.9773   92.3856   11.9229 C.ar    1  UNL1       -0.0030
     27 C          65.7741   92.7500   10.7054 C.ar    1  UNL1        0.0111
     28 C          67.2648   92.5826   10.7068 C.ar    1  UNL1        0.0577
     29 CL         68.0616   92.9470    9.4893 Cl      1  UNL1       -0.0822
     30 C          67.9586   92.0507   11.9258 C.ar    1  UNL1        0.0111
     31 C          67.1617   91.6863   13.1433 C.ar    1  UNL1       -0.0030
@<TRIPOS>BOND
     1     1     2    1
     2     2     3   ar
     3     3     7    1
     4     7     8   ar
     5     8     9   ar
     6     9    10   ar
     7    10    14    1
     8    14    15   ar
     9    15    16   ar
    10    16    17   ar
    11    17    18   ar
    12    18    19   ar
    13    10    11   ar
    14    11    12   ar
    15    12    13    1
    16     3     4   ar
    17     4     5   ar
    18     5     6   ar
    19     6    20    1
    20    20    25    1
    21    25    26   ar
    22    26    27   ar
    23    27    28   ar
    24    28    29    1
    25    28    30   ar
    26    30    31   ar
    27    20    21    1
    28    21    22    1
    29    22    23    1
    30    22    24    1
    31     6     2   ar
    32    24    20    1
    33    12     7   ar
    34    31    25   ar
    35    19    14   ar
@<TRIPOS>MOLECULE
*****
 31 35 0 0 0
SMALL
GASTEIGER

@<TRIPOS>ATOM
      1 C          64.3922   89.5753   16.0370 C.3     1  UNL1        0.1332
      2 N          63.9722   88.7022   14.8920 N.ar    1  UNL1       -0.2965
      3 C          64.0378   89.0633   13.4376 C.ar    1  UNL1        0.1670
      4 N          63.5189   87.8989   12.6470 N.ar    1  UNL1       -0.1290
      5 N          63.1326   86.8182   13.6128 N.ar    1  UNL1       -0.1330
      6 C          63.4128   87.3146   15.0004 C.ar    1  UNL1        0.1464
      7 C          64.5350   90.3610   12.8729 C.ar    1  UNL1        0.0465
      8 C          65.6572   91.0919   13.5484 C.ar    1  UNL1        0.0039
      9 C          66.1544   92.3895   12.9837 C.ar    1  UNL1        0.0017
     10 C          65.5293   92.9562   11.7434 C.ar    1  UNL1        0.0200
     11 C          64.4071   92.2253   11.0679 C.ar    1  UNL1        0.0130
     12 C          63.9099   90.9277   11.6326 C.ar    1  UNL1        0.0606
     13 CL         62.7877   90.1967   10.9571 Cl      1  UNL1       -0.0821
     14 C          66.0265   94.2539   11.1787 C.ar    1  UNL1        0.1005
     15 C          66.7736   94.2687    9.8781 C.ar    1  UNL1        0.1179
     16 N          67.2708   95.5664    9.3134 N.ar    1  UNL1       -0.2391
     17 C          67.0209   96.8493   10.0494 C.ar    1  UNL1        0.1195
     18 C          66.2738   96.8345   11.3500 C.ar    1  UNL1        0.1195
     19 N          65.7766   95.5369   11.9147 N.ar    1  UNL1       -0.2406
     20 C          63.1752   86.5566   16.2727 C.3     1  UNL1        0.0765
     21 C          62.9873   87.8503   17.0083 C.3     1  UNL1        0.0466
     22 C          62.7497   87.0923   18.2807 C.3     1  UNL1        0.1625
     23 F          62.4488   87.4711   19.7006 F       1  UNL1       -0.2372
     24 C          62.9376   85.7986   17.5451 C.3     1  UNL1        0.0466
     25 C          63.3631   85.2630   15.5372 C.ar    1  UNL1       -0.0158
     26 C          64.6718   84.9640   14.8679 C.ar    1  UNL1       -0.0030
     27 C          64.8597   83.6703   14.1323 C.ar    1  UNL1        0.0111
     28 C          63.7388   82.6756   14.0659 C.ar    1  UNL1        0.0577
     29 CL         63.9267   81.3819   13.3304 Cl      1  UNL1       -0.0822
     30 C          62.4301   82.9746   14.7352 C.ar    1  UNL1        0.0111
     31 C          62.2422   84.2683   15.4708 C.ar    1  UNL1       -0.0030
@<TRIPOS>BOND
     1     1     2    1
     2     2     3   ar
     3     3     7    1
     4     7     8   ar
     5     8     9   ar
     6     9    10   ar
     7    10    14    1
     8    14    15   ar
     9    15    16   ar
    10    16    17   ar
    11    17    18   ar
    12    18    19   ar
    13    10    11   ar
    14    11    12   ar
    15    12    13    1
    16     3     4   ar
    17     4     5   ar
    18     5     6   ar
    19     6    20    1
    20    20    25    1
    21    25    26   ar
    22    26    27   ar
    23    27    28   ar
    24    28    29    1
    25    28    30   ar
    26    30    31   ar
    27    20    21    1
    28    21    22    1
    29    22    23    1
    30    22    24    1
    31     6     2   ar
    32    24    20    1
    33    12     7   ar
    34    31    25   ar
    35    19    14   ar
@<TRIPOS>MOLECULE
*****
 31 35 0 0 0
SMALL
GASTEIGER

@<TRIPOS>ATOM
      1 C          66.5196   89.7281   14.5580 C.3     1  UNL1        0.1332
      2 N          65.4362   90.4385   13.8020 N.ar    1  UNL1       -0.2965
      3 C          64.2158   89.8032   13.2045 C.ar    1  UNL1        0.1670
      4 N          63.4084   90.8810   12.5439 N.ar    1  UNL1       -0.1290
      5 N          64.1298   92.1824   12.7331 N.ar    1  UNL1       -0.1330
      6 C          65.3832   91.9090   13.5106 C.ar    1  UNL1        0.1464
      7 C          63.8645   88.3458   13.2582 C.ar    1  UNL1        0.0465
      8 C          64.3104   87.5092   14.4206 C.ar    1  UNL1        0.0039
      9 C          63.9590   86.0520   14.4743 C.ar    1  UNL1        0.0017
     10 C          63.1618   85.4313   13.3656 C.ar    1  UNL1        0.0200
     11 C          62.7159   86.2680   12.2032 C.ar    1  UNL1        0.0130
     12 C          63.0672   87.7252   12.1495 C.ar    1  UNL1        0.0606
     13 CL         62.6213   88.5619   10.9871 Cl      1  UNL1       -0.0821
     14 C          62.8104   83.9740   13.4193 C.ar    1  UNL1        0.1005
     15 C          62.5271   83.3190   14.7386 C.ar    1  UNL1        0.1179
     16 N          62.1758   81.8616   14.7923 N.ar    1  UNL1       -0.2391
     17 C          62.1078   81.0594   13.5267 C.ar    1  UNL1        0.1195
     18 C          62.3912   81.7145   12.2074 C.ar    1  UNL1        0.1195
     19 N          62.7425   83.1718   12.1537 N.ar    1  UNL1       -0.2406
     20 C          66.4040   92.9271   13.9242 C.3     1  UNL1        0.0765
     21 C          66.2684   92.4837   15.3507 C.3     1  UNL1        0.0466
     22 C          67.2893   93.5019   15.7643 C.3     1  UNL1        0.1625
     23 F          67.9152   93.9083   17.0655 F       1  UNL1       -0.2372
     24 C          67.4249   93.9453   14.3378 C.3     1  UNL1        0.0466
     25 C          66.5397   93.3705   12.4977 C.ar    1  UNL1       -0.0158
     26 C          67.0671   92.4203   11.4638 C.ar    1  UNL1       -0.0030
     27 C          67.2027   92.8637   10.0373 C.ar    1  UNL1        0.0111
     28 C          66.8110   94.2574    9.6446 C.ar    1  UNL1        0.0577
     29 CL         66.9466   94.7008    8.2181 Cl      1  UNL1       -0.0822
     30 C          66.2836   95.2077   10.6785 C.ar    1  UNL1        0.0111
     31 C          66.1479   94.7642   12.1050 C.ar    1  UNL1       -0.0030
@<TRIPOS>BOND
     1     1     2    1
     2     2     3   ar
     3     3     7    1
     4     7     8   ar
     5     8     9   ar
     6     9    10   ar
     7    10    14    1
     8    14    15   ar
     9    15    16   ar
    10    16    17   ar
    11    17    18   ar
    12    18    19   ar
    13    10    11   ar
    14    11    12   ar
    15    12    13    1
    16     3     4   ar
    17     4     5   ar
    18     5     6   ar
    19     6    20    1
    20    20    25    1
    21    25    26   ar
    22    26    27   ar
    23    27    28   ar
    24    28    29    1
    25    28    30   ar
    26    30    31   ar
    27    20    21    1
    28    21    22    1
    29    22    23    1
    30    22    24    1
    31     6     2   ar
    32    24    20    1
    33    12     7   ar
    34    31    25   ar
    35    19    14   ar
