@<TRIPOS>MOLECULE
*****
 35 39 0 0 0
SMALL
GASTEIGER

@<TRIPOS>ATOM
      1 C          63.0975   90.5951   10.9667 C.3     1  UNL1        0.0327
      2 C          64.0878   91.6077   11.4607 C.ar    1  UNL1       -0.0026
      3 C          64.7646   92.5301   10.4906 C.ar    1  UNL1       -0.0026
      4 C          65.7548   93.5427   10.9846 C.ar    1  UNL1        0.0030
      5 C          66.0683   93.6329   12.4487 C.ar    1  UNL1        0.0225
      6 C          65.3915   92.7104   13.4189 C.ar    1  UNL1        0.1203
      7 N          65.7050   92.8006   14.8829 N.ar    1  UNL1       -0.1437
      8 N          65.0282   91.8782   15.8530 N.ar    1  UNL1       -0.1123
      9 C          64.0379   90.8656   15.3590 C.ar    1  UNL1        0.2398
     10 N          63.7245   90.7754   13.8949 N.ar    1  UNL1       -0.2111
     11 C          64.4012   91.6978   12.9249 C.ar    1  UNL1        0.0996
     12 C          66.4316   94.4651   10.0145 C.ar    1  UNL1        0.0212
     13 C          67.5374   93.9534    9.1397 C.ar    1  UNL1        0.0585
     14 CL         67.9665   92.5192    9.2350 Cl      1  UNL1       -0.0822
     15 C          68.2141   94.8758    8.1696 C.ar    1  UNL1        0.0114
     16 C          67.7850   96.3100    8.0743 C.ar    1  UNL1        0.0017
     17 C          66.6792   96.8217    8.9490 C.ar    1  UNL1        0.0114
     18 C          66.0025   95.8993    9.9191 C.ar    1  UNL1        0.0585
     19 CL         64.8966   96.4110   10.7940 Cl      1  UNL1       -0.0822
     20 N          63.3612   89.9432   16.3292 N.pl3   1  UNL1       -0.2813
     21 H          62.8310   90.3128   17.0719 H       1  UNL1        0.1551
     22 C          63.4921   88.4577   16.1677 C.ar    1  UNL1        0.0507
     23 C          62.8837   87.5364   17.1831 C.ar    1  UNL1        0.0178
     24 C          63.0147   86.0508   17.0216 C.ar    1  UNL1        0.0382
     25 C          63.7541   85.4866   15.8448 C.ar    1  UNL1        0.1387
     26 C          64.3625   86.4079   14.8295 C.ar    1  UNL1        0.0382
     27 C          64.2316   87.8934   14.9909 C.ar    1  UNL1        0.0178
     28 O          63.8851   84.0011   15.6834 O.3     1  UNL1       -0.4740
     29 C          62.7878   83.2186   15.0248 C.3     1  UNL1        0.2226
     30 C          63.0945   82.3431   13.8460 C.3     1  UNL1        0.1200
     31 N          63.2538   82.9489   12.4831 N.3     1  UNL1       -0.2696
     32 C          63.9843   82.3354   11.3255 C.3     1  UNL1        0.0722
     33 C          63.8926   83.2819   10.1654 C.3     1  UNL1        0.0188
     34 C          63.1055   84.4803   10.6060 C.3     1  UNL1        0.0188
     35 C          62.7106   84.2745   12.0385 C.3     1  UNL1        0.0722
@<TRIPOS>BOND
     1     1     2    1
     2     2     3   ar
     3     3     4   ar
     4     4    12    1
     5    12    13   ar
     6    13    14    1
     7    13    15   ar
     8    15    16   ar
     9    16    17   ar
    10    17    18   ar
    11    18    19    1
    12     4     5   ar
    13     5     6   ar
    14     6     7   ar
    15     7     8   ar
    16     8     9   ar
    17     9    20    1
    18    20    22    1
    19    22    23   ar
    20    23    24   ar
    21    24    25   ar
    22    25    28    1
    23    28    29    1
    24    29    30    1
    25    30    31    1
    26    31    32    1
    27    32    33    1
    28    33    34    1
    29    34    35    1
    30    25    26   ar
    31    26    27   ar
    32     9    10   ar
    33    10    11   ar
    34    11     2   ar
    35    18    12   ar
    36    11     6   ar
    37    27    22   ar
    38    35    31    1
    39    20    21    1
@<TRIPOS>MOLECULE
*****
 35 39 0 0 0
SMALL
GASTEIGER

@<TRIPOS>ATOM
      1 C          67.8210   91.9638   15.1366 C.3     1  UNL1        0.0327
      2 C          66.9143   92.1525   13.9566 C.ar    1  UNL1       -0.0026
      3 C          67.3201   93.0647   12.8372 C.ar    1  UNL1       -0.0026
      4 C          66.4134   93.2533   11.6573 C.ar    1  UNL1        0.0030
      5 C          65.1009   92.5298   11.5967 C.ar    1  UNL1        0.0225
      6 C          64.6950   91.6175   12.7162 C.ar    1  UNL1        0.1203
      7 N          63.3825   90.8939   12.6557 N.ar    1  UNL1       -0.1437
      8 N          62.9767   89.9817   13.7751 N.ar    1  UNL1       -0.1123
      9 C          63.8834   89.7931   14.9550 C.ar    1  UNL1        0.2398
     10 N          65.1959   90.5166   15.0156 N.ar    1  UNL1       -0.2111
     11 C          65.6017   91.4289   13.8961 C.ar    1  UNL1        0.0996
     12 C          66.8192   94.1656   10.5378 C.ar    1  UNL1        0.0212
     13 C          66.5106   95.6314   10.6154 C.ar    1  UNL1        0.0585
     14 CL         65.7961   96.1851   11.8125 Cl      1  UNL1       -0.0822
     15 C          66.9165   96.5436    9.4960 C.ar    1  UNL1        0.0114
     16 C          67.6310   95.9900    8.2989 C.ar    1  UNL1        0.0017
     17 C          67.9396   94.5241    8.2213 C.ar    1  UNL1        0.0114
     18 C          67.5337   93.6120    9.3407 C.ar    1  UNL1        0.0585
     19 CL         67.8424   92.1461    9.2631 Cl      1  UNL1       -0.0822
     20 N          63.4775   88.8808   16.0745 N.pl3   1  UNL1       -0.2813
     21 H          63.1994   89.2577   16.9404 H       1  UNL1        0.1551
     22 C          63.4955   87.3943   15.8746 C.ar    1  UNL1        0.0507
     23 C          62.6897   86.5066   16.7760 C.ar    1  UNL1        0.0178
     24 C          62.7076   85.0200   16.5761 C.ar    1  UNL1        0.0382
     25 C          63.5314   84.4213   15.4748 C.ar    1  UNL1        0.1387
     26 C          64.3372   85.3090   14.5734 C.ar    1  UNL1        0.0382
     27 C          64.3193   86.7955   14.7733 C.ar    1  UNL1        0.0178
     28 O          63.5493   82.9348   15.2749 O.3     1  UNL1       -0.4740
     29 C          62.4464   82.2679   14.5076 C.3     1  UNL1        0.2226
     30 C          62.7285   81.6572   13.1668 C.3     1  UNL1        0.1200
     31 N          63.0621   82.5358   11.9977 N.3     1  UNL1       -0.2696
     32 C          63.9630   82.1765   10.8535 C.3     1  UNL1        0.0722
     33 C          64.0110   83.3466    9.9162 C.3     1  UNL1        0.0188
     34 C          63.1397   84.4291   10.4811 C.3     1  UNL1        0.0188
     35 C          62.5531   83.9280   11.7676 C.3     1  UNL1        0.0722
@<TRIPOS>BOND
     1     1     2    1
     2     2     3   ar
     3     3     4   ar
     4     4    12    1
     5    12    13   ar
     6    13    14    1
     7    13    15   ar
     8    15    16   ar
     9    16    17   ar
    10    17    18   ar
    11    18    19    1
    12     4     5   ar
    13     5     6   ar
    14     6     7   ar
    15     7     8   ar
    16     8     9   ar
    17     9    20    1
    18    20    22    1
    19    22    23   ar
    20    23    24   ar
    21    24    25   ar
    22    25    28    1
    23    28    29    1
    24    29    30    1
    25    30    31    1
    26    31    32    1
    27    32    33    1
    28    33    34    1
    29    34    35    1
    30    25    26   ar
    31    26    27   ar
    32     9    10   ar
    33    10    11   ar
    34    11     2   ar
    35    18    12   ar
    36    11     6   ar
    37    27    22   ar
    38    35    31    1
    39    20    21    1
@<TRIPOS>MOLECULE
*****
 35 39 0 0 0
SMALL
GASTEIGER

@<TRIPOS>ATOM
      1 C          67.8467   91.9544   15.1004 C.3     1  UNL1        0.0327
      2 C          66.9151   92.1629   13.9434 C.ar    1  UNL1       -0.0026
      3 C          67.3271   93.0382   12.7971 C.ar    1  UNL1       -0.0026
      4 C          66.3955   93.2467   11.6401 C.ar    1  UNL1        0.0030
      5 C          65.0519   92.5798   11.6294 C.ar    1  UNL1        0.0225
      6 C          64.6399   91.7045   12.7758 C.ar    1  UNL1        0.1203
      7 N          63.2964   91.0377   12.7651 N.ar    1  UNL1       -0.1437
      8 N          62.8844   90.1624   13.9114 N.ar    1  UNL1       -0.1123
      9 C          63.8160   89.9539   15.0685 C.ar    1  UNL1        0.2398
     10 N          65.1596   90.6207   15.0791 N.ar    1  UNL1       -0.2111
     11 C          65.5715   91.4960   13.9328 C.ar    1  UNL1        0.0996
     12 C          66.8075   94.1220   10.4937 C.ar    1  UNL1        0.0212
     13 C          67.5545   93.5353    9.3328 C.ar    1  UNL1        0.0585
     14 CL         67.8894   92.0732    9.3182 Cl      1  UNL1       -0.0822
     15 C          67.9664   94.4106    8.1865 C.ar    1  UNL1        0.0114
     16 C          67.6315   95.8727    8.2012 C.ar    1  UNL1        0.0017
     17 C          66.8845   96.4594    9.3621 C.ar    1  UNL1        0.0114
     18 C          66.4725   95.5840   10.5084 C.ar    1  UNL1        0.0585
     19 CL         65.7255   96.1707   11.6694 Cl      1  UNL1       -0.0822
     20 N          63.4040   89.0786   16.2148 N.pl3   1  UNL1       -0.2813
     21 H          63.1248   89.4834   17.0677 H       1  UNL1        0.1551
     22 C          63.4173   87.5865   16.0617 C.ar    1  UNL1        0.0507
     23 C          62.5361   86.7358   16.9275 C.ar    1  UNL1        0.0178
     24 C          62.5494   85.2436   16.7743 C.ar    1  UNL1        0.0382
     25 C          63.4440   84.6023   15.7554 C.ar    1  UNL1        0.1387
     26 C          64.3253   85.4530   14.8895 C.ar    1  UNL1        0.0382
     27 C          64.3119   86.9451   15.0427 C.ar    1  UNL1        0.0178
     28 O          63.4574   83.1102   15.6022 O.3     1  UNL1       -0.4740
     29 C          62.7693   82.4701   14.4331 C.3     1  UNL1        0.2226
     30 C          63.3773   82.5585   13.0646 C.3     1  UNL1        0.1200
     31 N          63.1666   81.4492   12.0773 N.3     1  UNL1       -0.2696
     32 C          63.3706   81.5385   10.5939 C.3     1  UNL1        0.0722
     33 C          63.0451   80.2002    9.9997 C.3     1  UNL1        0.0188
     34 C          62.6399   79.2837   11.1159 C.3     1  UNL1        0.0188
     35 C          62.7150   80.0556   12.4000 C.3     1  UNL1        0.0722
@<TRIPOS>BOND
     1     1     2    1
     2     2     3   ar
     3     3     4   ar
     4     4    12    1
     5    12    13   ar
     6    13    14    1
     7    13    15   ar
     8    15    16   ar
     9    16    17   ar
    10    17    18   ar
    11    18    19    1
    12     4     5   ar
    13     5     6   ar
    14     6     7   ar
    15     7     8   ar
    16     8     9   ar
    17     9    20    1
    18    20    22    1
    19    22    23   ar
    20    23    24   ar
    21    24    25   ar
    22    25    28    1
    23    28    29    1
    24    29    30    1
    25    30    31    1
    26    31    32    1
    27    32    33    1
    28    33    34    1
    29    34    35    1
    30    25    26   ar
    31    26    27   ar
    32     9    10   ar
    33    10    11   ar
    34    11     2   ar
    35    18    12   ar
    36    11     6   ar
    37    27    22   ar
    38    35    31    1
    39    20    21    1
@<TRIPOS>MOLECULE
*****
 35 39 0 0 0
SMALL
GASTEIGER

@<TRIPOS>ATOM
      1 C          65.0802   85.8321   15.0245 C.3     1  UNL1        0.0327
      2 C          64.1822   85.4469   13.8864 C.ar    1  UNL1       -0.0026
      3 C          64.0197   84.0027   13.5149 C.ar    1  UNL1       -0.0026
      4 C          63.1217   83.6175   12.3768 C.ar    1  UNL1        0.0030
      5 C          62.3863   84.6764   11.6101 C.ar    1  UNL1        0.0225
      6 C          62.5488   86.1207   11.9816 C.ar    1  UNL1        0.1203
      7 N          61.8134   87.1796   11.2149 N.ar    1  UNL1       -0.1437
      8 N          61.9760   88.6237   11.5864 N.ar    1  UNL1       -0.1123
      9 C          62.8739   89.0089   12.7245 C.ar    1  UNL1        0.2398
     10 N          63.6093   87.9500   13.4911 N.ar    1  UNL1       -0.2111
     11 C          63.4468   86.5059   13.1197 C.ar    1  UNL1        0.0996
     12 C          62.9592   82.1733   12.0054 C.ar    1  UNL1        0.0212
     13 C          63.4304   81.6854   10.6675 C.ar    1  UNL1        0.0585
     14 CL         64.0641   82.6416    9.7010 Cl      1  UNL1       -0.0822
     15 C          63.2679   80.2412   10.2961 C.ar    1  UNL1        0.0114
     16 C          62.6341   79.2850   11.2626 C.ar    1  UNL1        0.0017
     17 C          62.1630   79.7729   12.6005 C.ar    1  UNL1        0.0114
     18 C          62.3255   81.2171   12.9718 C.ar    1  UNL1        0.0585
     19 CL         61.8543   81.7051   14.3097 Cl      1  UNL1       -0.0822
     20 N          63.0364   90.4532   13.0959 N.pl3   1  UNL1       -0.2813
     21 H          62.3823   90.8848   13.6917 H       1  UNL1        0.1551
     22 C          64.1956   91.2396   12.5596 C.ar    1  UNL1        0.0507
     23 C          64.1747   91.7356   11.1441 C.ar    1  UNL1        0.0178
     24 C          65.3340   92.5222   10.6078 C.ar    1  UNL1        0.0382
     25 C          66.5141   92.8126   11.4869 C.ar    1  UNL1        0.1387
     26 C          66.5350   92.3166   12.9024 C.ar    1  UNL1        0.0382
     27 C          65.3758   91.5302   13.4387 C.ar    1  UNL1        0.0178
     28 O          67.6732   93.5991   10.9506 O.3     1  UNL1       -0.4740
     29 C          68.0262   93.5168    9.4950 C.3     1  UNL1        0.2226
     30 C          67.9607   94.7453    8.6367 C.3     1  UNL1        0.1200
     31 N          66.7117   95.5754    8.6094 N.3     1  UNL1       -0.2696
     32 C          65.9503   96.0623    9.8065 C.3     1  UNL1        0.0722
     33 C          64.7727   96.8522    9.3171 C.3     1  UNL1        0.0188
     34 C          64.8064   96.8535    7.8175 C.3     1  UNL1        0.0188
     35 C          66.0047   96.0643    7.3800 C.3     1  UNL1        0.0722
@<TRIPOS>BOND
     1     1     2    1
     2     2     3   ar
     3     3     4   ar
     4     4    12    1
     5    12    13   ar
     6    13    14    1
     7    13    15   ar
     8    15    16   ar
     9    16    17   ar
    10    17    18   ar
    11    18    19    1
    12     4     5   ar
    13     5     6   ar
    14     6     7   ar
    15     7     8   ar
    16     8     9   ar
    17     9    20    1
    18    20    22    1
    19    22    23   ar
    20    23    24   ar
    21    24    25   ar
    22    25    28    1
    23    28    29    1
    24    29    30    1
    25    30    31    1
    26    31    32    1
    27    32    33    1
    28    33    34    1
    29    34    35    1
    30    25    26   ar
    31    26    27   ar
    32     9    10   ar
    33    10    11   ar
    34    11     2   ar
    35    18    12   ar
    36    11     6   ar
    37    27    22   ar
    38    35    31    1
    39    20    21    1
@<TRIPOS>MOLECULE
*****
 35 39 0 0 0
SMALL
GASTEIGER

@<TRIPOS>ATOM
      1 C          67.9867   92.4971   14.4715 C.3     1  UNL1        0.0327
      2 C          66.9735   92.6480   13.3758 C.ar    1  UNL1       -0.0026
      3 C          67.2730   93.5193   12.1922 C.ar    1  UNL1       -0.0026
      4 C          66.2598   93.6702   11.0964 C.ar    1  UNL1        0.0030
      5 C          64.9471   92.9499   11.1844 C.ar    1  UNL1        0.0225
      6 C          64.6475   92.0785   12.3681 C.ar    1  UNL1        0.1203
      7 N          63.3348   91.3582   12.4561 N.ar    1  UNL1       -0.1437
      8 N          63.0353   90.4869   13.6397 N.ar    1  UNL1       -0.1123
      9 C          64.0485   90.3359   14.7354 C.ar    1  UNL1        0.2398
     10 N          65.3612   91.0563   14.6475 N.ar    1  UNL1       -0.2111
     11 C          65.6607   91.9276   13.4638 C.ar    1  UNL1        0.0996
     12 C          66.5593   94.5416    9.9127 C.ar    1  UNL1        0.0212
     13 C          67.5946   94.1187    8.9130 C.ar    1  UNL1        0.0585
     14 CL         68.3303   92.8246    9.0970 Cl      1  UNL1       -0.0822
     15 C          67.8941   94.9901    7.7294 C.ar    1  UNL1        0.0114
     16 C          67.1583   96.2843    7.5455 C.ar    1  UNL1        0.0017
     17 C          66.1231   96.7071    8.5452 C.ar    1  UNL1        0.0114
     18 C          65.8236   95.8358    9.7288 C.ar    1  UNL1        0.0585
     19 CL         64.7883   96.2586   10.7286 Cl      1  UNL1       -0.0822
     20 N          63.7490   89.4646   15.9191 N.pl3   1  UNL1       -0.2813
     21 H          63.5203   89.8726   16.7854 H       1  UNL1        0.1551
     22 C          63.7979   87.9716   15.7830 C.ar    1  UNL1        0.0507
     23 C          64.5152   87.3474   14.6229 C.ar    1  UNL1        0.0178
     24 C          64.5641   85.8544   14.4867 C.ar    1  UNL1        0.0382
     25 C          63.8956   84.9856   15.5106 C.ar    1  UNL1        0.1387
     26 C          63.1782   85.6098   16.6706 C.ar    1  UNL1        0.0382
     27 C          63.1293   87.1028   16.8068 C.ar    1  UNL1        0.0178
     28 O          63.9445   83.4926   15.3744 O.3     1  UNL1       -0.4740
     29 C          63.6659   82.8510   14.0475 C.3     1  UNL1        0.2226
     30 C          62.4796   83.2855   13.2387 C.3     1  UNL1        0.1200
     31 N          62.6813   83.9634   11.9159 N.3     1  UNL1       -0.2696
     32 C          63.5496   83.4711   10.7962 C.3     1  UNL1        0.0722
     33 C          63.4551   84.4561    9.6689 C.3     1  UNL1        0.0188
     34 C          62.5285   85.5572   10.0919 C.3     1  UNL1        0.0188
     35 C          62.0502   85.2528   11.4807 C.3     1  UNL1        0.0722
@<TRIPOS>BOND
     1     1     2    1
     2     2     3   ar
     3     3     4   ar
     4     4    12    1
     5    12    13   ar
     6    13    14    1
     7    13    15   ar
     8    15    16   ar
     9    16    17   ar
    10    17    18   ar
    11    18    19    1
    12     4     5   ar
    13     5     6   ar
    14     6     7   ar
    15     7     8   ar
    16     8     9   ar
    17     9    20    1
    18    20    22    1
    19    22    23   ar
    20    23    24   ar
    21    24    25   ar
    22    25    28    1
    23    28    29    1
    24    29    30    1
    25    30    31    1
    26    31    32    1
    27    32    33    1
    28    33    34    1
    29    34    35    1
    30    25    26   ar
    31    26    27   ar
    32     9    10   ar
    33    10    11   ar
    34    11     2   ar
    35    18    12   ar
    36    11     6   ar
    37    27    22   ar
    38    35    31    1
    39    20    21    1
