@<TRIPOS>MOLECULE
*****
 40 42 0 0 0
SMALL
GASTEIGER

@<TRIPOS>ATOM
      1 C          61.0792   87.3873    9.7462 C.ar    1  UNL1        0.1263
      2 C          59.8191   88.1801    9.5629 C.ar    1  UNL1        0.0200
      3 C          58.8812   87.8487    8.4402 C.ar    1  UNL1        0.0014
      4 C          59.2033   86.7244    7.5009 C.ar    1  UNL1        0.0002
      5 C          60.4634   85.9316    7.6842 C.ar    1  UNL1        0.0059
      6 C          61.4013   86.2631    8.8069 C.ar    1  UNL1        0.0719
      7 C          62.6615   85.4703    8.9902 C.2     1  UNL1        0.2472
      8 O          63.8926   85.8279    8.2115 O.2     1  UNL1       -0.2701
      9 N          62.6904   84.3198    9.9524 N.am    1  UNL1       -0.3005
     10 H          61.8824   84.0851   10.4635 H       1  UNL1        0.1498
     11 C          63.9505   83.5270   10.1357 C.3     1  UNL1        0.0944
     12 C          64.1448   82.7033   11.3742 C.3     1  UNL1        0.0477
     13 C          63.6587   83.2137   12.6983 C.ar    1  UNL1       -0.0173
     14 C          62.8556   82.3210   13.5972 C.ar    1  UNL1       -0.0009
     15 C          62.3695   82.8314   14.9213 C.ar    1  UNL1        0.0394
     16 C          62.6867   84.2344   15.3465 C.ar    1  UNL1        0.1675
     17 O          62.2007   84.7449   16.6707 O.3     1  UNL1       -0.5029
     18 C          63.4899   85.1271   14.4476 C.ar    1  UNL1        0.1672
     19 O          63.8070   86.5303   14.8729 O.3     1  UNL1       -0.5029
     20 C          63.9759   84.6168   13.1235 C.ar    1  UNL1        0.0356
     21 H          61.6989   84.1872   17.2322 H       1  UNL1        0.2923
     22 H          63.5034   86.8491   15.7000 H       1  UNL1        0.2923
     23 S          62.0172   87.7187   10.8689 S.O2    1  UNL1        0.0608
     24 O          62.5889   88.8443   10.0589 O.2     1  UNL1       -0.1530
     25 O          61.4455   86.5931   11.6789 O.2     1  UNL1       -0.1530
     26 N          62.9552   88.0502   11.9915 N.3     1  UNL1       -0.1701
     27 H          62.8131   87.3428   12.7125 H       1  UNL1        0.1494
     28 C          62.8695   89.3846   12.6712 C.3     1  UNL1        0.1763
     29 O          64.6526   89.0694   14.5344 O.2     1  UNL1       -0.2732
     30 C          64.0405   89.9060   13.4502 C.2     1  UNL1        0.2439
     31 N          64.5994   91.2641   13.1451 N.am    1  UNL1       -0.2827
     32 H          64.1977   91.8133   12.4335 H       1  UNL1        0.1549
     33 C          65.7705   91.7856   13.9241 C.ar    1  UNL1        0.0505
     34 C          67.1186   91.8862   13.2743 C.ar    1  UNL1        0.0178
     35 C          68.2896   92.4077   14.0533 C.ar    1  UNL1        0.0379
     36 C          68.1123   92.8286   15.4822 C.ar    1  UNL1        0.1338
     37 O          69.2834   93.3501   16.2612 O.3     1  UNL1       -0.5055
     38 C          66.7642   92.7279   16.1319 C.ar    1  UNL1        0.0379
     39 C          65.5932   92.2065   15.3529 C.ar    1  UNL1        0.0178
     40 H          70.1256   93.4129   15.8553 H       1  UNL1        0.2922
@<TRIPOS>BOND
     1    29    30    2
     2    30    28    1
     3    28    26    1
     4    26    23    1
     5    23    24    2
     6    23    25    2
     7    23     1    1
     8     1     2   ar
     9     2     3   ar
    10     3     4   ar
    11     4     5   ar
    12     5     6   ar
    13     6     7    1
    14     7     8    2
    15     7     9   am
    16     9    11    1
    17    11    12    1
    18    12    13    1
    19    13    14   ar
    20    14    15   ar
    21    15    16   ar
    22    16    17    1
    23    16    18   ar
    24    18    19    1
    25    18    20   ar
    26    30    31   am
    27    31    33    1
    28    33    34   ar
    29    34    35   ar
    30    35    36   ar
    31    36    37    1
    32    36    38   ar
    33    38    39   ar
    34     6     1   ar
    35    20    13   ar
    36    39    33   ar
    37    26    27    1
    38     9    10    1
    39    17    21    1
    40    19    22    1
    41    31    32    1
    42    37    40    1
@<TRIPOS>MOLECULE
*****
 40 42 0 0 0
SMALL
GASTEIGER

@<TRIPOS>ATOM
      1 C          61.0656   87.3801    9.7482 C.ar    1  UNL1        0.1263
      2 C          59.7964   88.1570    9.5597 C.ar    1  UNL1        0.0200
      3 C          58.8662   87.8122    8.4346 C.ar    1  UNL1        0.0014
      4 C          59.2051   86.6906    7.4981 C.ar    1  UNL1        0.0002
      5 C          60.4743   85.9138    7.6866 C.ar    1  UNL1        0.0059
      6 C          61.4046   86.2585    8.8116 C.ar    1  UNL1        0.0719
      7 C          62.6738   85.4817    9.0002 C.2     1  UNL1        0.2472
      8 O          63.9063   85.8611    8.2340 O.2     1  UNL1       -0.2701
      9 N          62.7106   84.3254    9.9550 N.am    1  UNL1       -0.3005
     10 H          61.9017   84.0763   10.4579 H       1  UNL1        0.1498
     11 C          63.9798   83.5485   10.1436 C.3     1  UNL1        0.0944
     12 C          64.1790   82.7266   11.3824 C.3     1  UNL1        0.0477
     13 C          63.6872   83.2334   12.7058 C.ar    1  UNL1       -0.0173
     14 C          62.8705   82.3420   13.5938 C.ar    1  UNL1       -0.0009
     15 C          62.3787   82.8487   14.9171 C.ar    1  UNL1        0.0394
     16 C          62.7036   84.2468   15.3525 C.ar    1  UNL1        0.1675
     17 O          62.2118   84.7536   16.6760 O.3     1  UNL1       -0.5029
     18 C          63.5203   85.1382   14.4646 C.ar    1  UNL1        0.1672
     19 O          63.8451   86.5364   14.9001 O.3     1  UNL1       -0.5029
     20 C          64.0121   84.6315   13.1413 C.ar    1  UNL1        0.0356
     21 H          61.7016   84.1968   17.2306 H       1  UNL1        0.2923
     22 H          63.5379   86.8530   15.7268 H       1  UNL1        0.2923
     23 S          61.9959   87.7249   10.8733 S.O2    1  UNL1        0.0608
     24 O          61.4392   86.5902   11.6811 O.2     1  UNL1       -0.1530
     25 O          62.5526   88.8595   10.0654 O.2     1  UNL1       -0.1530
     26 N          62.9261   88.0695   11.9983 N.3     1  UNL1       -0.1701
     27 H          62.7379   87.4060   12.7498 H       1  UNL1        0.1494
     28 C          62.8885   89.4387   12.6100 C.3     1  UNL1        0.1763
     29 O          64.6535   89.0756   14.4815 O.2     1  UNL1       -0.2732
     30 C          64.0574   89.9363   13.4074 C.2     1  UNL1        0.2439
     31 N          64.6302   91.2947   13.1307 N.am    1  UNL1       -0.2827
     32 H          64.2390   91.8596   12.4257 H       1  UNL1        0.1549
     33 C          65.7993   91.7924   13.9281 C.ar    1  UNL1        0.0505
     34 C          65.6089   92.2138   15.3550 C.ar    1  UNL1        0.0178
     35 C          66.7779   92.7115   16.1523 C.ar    1  UNL1        0.0379
     36 C          68.1372   92.7877   15.5227 C.ar    1  UNL1        0.1338
     37 O          69.3062   93.2854   16.3201 O.3     1  UNL1       -0.5055
     38 C          68.3276   92.3663   14.0958 C.ar    1  UNL1        0.0379
     39 C          67.1586   91.8686   13.2985 C.ar    1  UNL1        0.0178
     40 H          69.1873   93.5487   17.2114 H       1  UNL1        0.2922
@<TRIPOS>BOND
     1    29    30    2
     2    30    28    1
     3    28    26    1
     4    26    23    1
     5    23    24    2
     6    23    25    2
     7    23     1    1
     8     1     2   ar
     9     2     3   ar
    10     3     4   ar
    11     4     5   ar
    12     5     6   ar
    13     6     7    1
    14     7     8    2
    15     7     9   am
    16     9    11    1
    17    11    12    1
    18    12    13    1
    19    13    14   ar
    20    14    15   ar
    21    15    16   ar
    22    16    17    1
    23    16    18   ar
    24    18    19    1
    25    18    20   ar
    26    30    31   am
    27    31    33    1
    28    33    34   ar
    29    34    35   ar
    30    35    36   ar
    31    36    37    1
    32    36    38   ar
    33    38    39   ar
    34     6     1   ar
    35    20    13   ar
    36    39    33   ar
    37    26    27    1
    38     9    10    1
    39    17    21    1
    40    19    22    1
    41    31    32    1
    42    37    40    1
@<TRIPOS>MOLECULE
*****
 40 42 0 0 0
SMALL
GASTEIGER

@<TRIPOS>ATOM
      1 C          65.1322   91.5663   14.8195 C.ar    1  UNL1        0.1263
      2 C          66.0814   92.0834   15.8595 C.ar    1  UNL1        0.0200
      3 C          67.1129   93.1079   15.4903 C.ar    1  UNL1        0.0014
      4 C          67.1952   93.6154   14.0811 C.ar    1  UNL1        0.0002
      5 C          66.2459   93.0983   13.0412 C.ar    1  UNL1        0.0059
      6 C          65.2145   92.0738   13.4104 C.ar    1  UNL1        0.0719
      7 C          64.2652   91.5566   12.3704 C.2     1  UNL1        0.2472
      8 O          64.5216   91.8310   10.9182 O.2     1  UNL1       -0.2701
      9 N          63.0596   90.7652   12.7827 N.am    1  UNL1       -0.3005
     10 H          62.8913   90.5851   13.7358 H       1  UNL1        0.1498
     11 C          62.1103   90.2480   11.7428 C.3     1  UNL1        0.0944
     12 C          62.5812   89.2488   10.7280 C.3     1  UNL1        0.0477
     13 C          61.5841   88.4977    9.8962 C.ar    1  UNL1       -0.0173
     14 C          61.4879   87.0049   10.0070 C.ar    1  UNL1       -0.0009
     15 C          60.4908   86.2538    9.1754 C.ar    1  UNL1        0.0394
     16 C          59.5900   86.9955    8.2329 C.ar    1  UNL1        0.1675
     17 O          58.5929   86.2445    7.4012 O.3     1  UNL1       -0.5029
     18 C          59.6862   88.4883    8.1221 C.ar    1  UNL1        0.1672
     19 O          58.7853   89.2301    7.1796 O.3     1  UNL1       -0.5029
     20 C          60.6832   89.2394    8.9538 C.ar    1  UNL1        0.0356
     21 H          58.5327   85.3120    7.4704 H       1  UNL1        0.2923
     22 H          58.1624   88.7609    6.6601 H       1  UNL1        0.2923
     23 S          64.1007   90.5417   15.1887 S.O2    1  UNL1        0.0608
     24 O          64.8978   89.4850   14.4830 O.2     1  UNL1       -0.1530
     25 O          63.3036   91.5984   15.8943 O.2     1  UNL1       -0.1530
     26 N          63.0693   89.5171   15.5578 N.3     1  UNL1       -0.1701
     27 H          62.3401   90.0069   16.0763 H       1  UNL1        0.1494
     28 C          63.4579   88.3238   16.3795 C.3     1  UNL1        0.1763
     29 O          62.4035   85.9565   16.5632 O.2     1  UNL1       -0.2732
     30 C          63.2665   86.9409   15.8310 C.2     1  UNL1        0.2439
     31 N          63.9379   86.5425   14.5502 N.am    1  UNL1       -0.2827
     32 H          64.5043   87.1887   14.0697 H       1  UNL1        0.1549
     33 C          63.7465   85.1596   14.0016 C.ar    1  UNL1        0.0505
     34 C          64.3237   83.9792   14.7251 C.ar    1  UNL1        0.0178
     35 C          64.1323   82.5963   14.1765 C.ar    1  UNL1        0.0379
     36 C          63.3636   82.3938   12.9045 C.ar    1  UNL1        0.1338
     37 O          63.1722   81.0109   12.3559 O.3     1  UNL1       -0.5055
     38 C          62.7864   83.5742   12.1810 C.ar    1  UNL1        0.0379
     39 C          62.9779   84.9571   12.7296 C.ar    1  UNL1        0.0178
     40 H          63.5328   80.2735   12.8078 H       1  UNL1        0.2922
@<TRIPOS>BOND
     1    29    30    2
     2    30    28    1
     3    28    26    1
     4    26    23    1
     5    23    24    2
     6    23    25    2
     7    23     1    1
     8     1     2   ar
     9     2     3   ar
    10     3     4   ar
    11     4     5   ar
    12     5     6   ar
    13     6     7    1
    14     7     8    2
    15     7     9   am
    16     9    11    1
    17    11    12    1
    18    12    13    1
    19    13    14   ar
    20    14    15   ar
    21    15    16   ar
    22    16    17    1
    23    16    18   ar
    24    18    19    1
    25    18    20   ar
    26    30    31   am
    27    31    33    1
    28    33    34   ar
    29    34    35   ar
    30    35    36   ar
    31    36    37    1
    32    36    38   ar
    33    38    39   ar
    34     6     1   ar
    35    20    13   ar
    36    39    33   ar
    37    26    27    1
    38     9    10    1
    39    17    21    1
    40    19    22    1
    41    31    32    1
    42    37    40    1
@<TRIPOS>MOLECULE
*****
 40 42 0 0 0
SMALL
GASTEIGER

@<TRIPOS>ATOM
      1 C          63.1499   82.2686   11.9673 C.ar    1  UNL1        0.1263
      2 C          62.9292   80.8790   11.4476 C.ar    1  UNL1        0.0200
      3 C          62.5048   79.7867   12.3839 C.ar    1  UNL1        0.0014
      4 C          62.3011   80.0841   13.8400 C.ar    1  UNL1        0.0002
      5 C          62.5218   81.4737   14.3597 C.ar    1  UNL1        0.0059
      6 C          62.9462   82.5660   13.4234 C.ar    1  UNL1        0.0719
      7 C          63.1668   83.9557   13.9430 C.2     1  UNL1        0.2472
      8 O          62.0251   84.9271   13.9951 O.2     1  UNL1       -0.2701
      9 N          64.5293   84.3740   14.4107 N.am    1  UNL1       -0.3005
     10 H          65.2787   83.7364   14.3765 H       1  UNL1        0.1498
     11 C          64.7500   85.7637   14.9303 C.3     1  UNL1        0.0944
     12 C          64.3419   86.9471   14.1040 C.3     1  UNL1        0.0477
     13 C          64.1263   88.2799   14.7577 C.ar    1  UNL1       -0.0173
     14 C          63.4709   88.3573   16.1047 C.ar    1  UNL1       -0.0009
     15 C          63.2554   89.6900   16.7584 C.ar    1  UNL1        0.0394
     16 C          63.6953   90.9453   16.0651 C.ar    1  UNL1        0.1675
     17 O          63.4798   92.2781   16.7189 O.3     1  UNL1       -0.5029
     18 C          64.3508   90.8679   14.7181 C.ar    1  UNL1        0.1672
     19 O          64.7907   92.1232   14.0249 O.3     1  UNL1       -0.5029
     20 C          64.5663   89.5352   14.0644 C.ar    1  UNL1        0.0356
     21 H          63.0704   92.3264   17.5603 H       1  UNL1        0.2923
     22 H          64.6561   92.9558   14.4333 H       1  UNL1        0.2923
     23 S          63.5743   83.3610   11.0310 S.O2    1  UNL1        0.0608
     24 O          62.1725   83.8946   11.0182 O.2     1  UNL1       -0.1530
     25 O          64.9761   82.8273   11.0437 O.2     1  UNL1       -0.1530
     26 N          63.9986   84.4533   10.0947 N.3     1  UNL1       -0.1701
     27 H          64.2348   85.2605   10.6717 H       1  UNL1        0.1494
     28 C          63.0563   84.9401    9.0340 C.3     1  UNL1        0.1763
     29 O          61.0932   86.4860    8.3220 O.2     1  UNL1       -0.2732
     30 C          62.1622   86.1134    9.3061 C.2     1  UNL1        0.2439
     31 N          62.3371   86.9140   10.5624 N.am    1  UNL1       -0.2827
     32 H          63.0387   86.6695   11.2083 H       1  UNL1        0.1549
     33 C          61.4430   88.0873   10.8347 C.ar    1  UNL1        0.0505
     34 C          60.0905   87.8735   11.4468 C.ar    1  UNL1        0.0178
     35 C          59.1965   89.0468   11.7190 C.ar    1  UNL1        0.0379
     36 C          59.6551   90.4339   11.3791 C.ar    1  UNL1        0.1338
     37 O          58.7610   91.6072   11.6513 O.3     1  UNL1       -0.5055
     38 C          61.0076   90.6478   10.7669 C.ar    1  UNL1        0.0379
     39 C          61.9016   89.4745   10.4947 C.ar    1  UNL1        0.0178
     40 H          57.9161   91.4736   12.0337 H       1  UNL1        0.2922
@<TRIPOS>BOND
     1    29    30    2
     2    30    28    1
     3    28    26    1
     4    26    23    1
     5    23    24    2
     6    23    25    2
     7    23     1    1
     8     1     2   ar
     9     2     3   ar
    10     3     4   ar
    11     4     5   ar
    12     5     6   ar
    13     6     7    1
    14     7     8    2
    15     7     9   am
    16     9    11    1
    17    11    12    1
    18    12    13    1
    19    13    14   ar
    20    14    15   ar
    21    15    16   ar
    22    16    17    1
    23    16    18   ar
    24    18    19    1
    25    18    20   ar
    26    30    31   am
    27    31    33    1
    28    33    34   ar
    29    34    35   ar
    30    35    36   ar
    31    36    37    1
    32    36    38   ar
    33    38    39   ar
    34     6     1   ar
    35    20    13   ar
    36    39    33   ar
    37    26    27    1
    38     9    10    1
    39    17    21    1
    40    19    22    1
    41    31    32    1
    42    37    40    1
@<TRIPOS>MOLECULE
*****
 40 42 0 0 0
SMALL
GASTEIGER

@<TRIPOS>ATOM
      1 C          64.4196   90.9561   13.3163 C.ar    1  UNL1        0.1263
      2 C          65.3084   91.5933   12.2897 C.ar    1  UNL1        0.0200
      3 C          66.5530   92.3127   12.7181 C.ar    1  UNL1        0.0014
      4 C          66.9086   92.3950   14.1730 C.ar    1  UNL1        0.0002
      5 C          66.0198   91.7578   15.1995 C.ar    1  UNL1        0.0059
      6 C          64.7753   91.0383   14.7712 C.ar    1  UNL1        0.0719
      7 C          63.8864   90.4010   15.7978 C.2     1  UNL1        0.2472
      8 O          63.1583   91.2548   16.7932 O.2     1  UNL1       -0.2701
      9 N          63.7256   88.9100   15.8288 N.am    1  UNL1       -0.3005
     10 H          64.2034   88.3496   15.1754 H       1  UNL1        0.1498
     11 C          62.8367   88.2727   16.8553 C.3     1  UNL1        0.0944
     12 C          63.0753   86.8529   17.2764 C.3     1  UNL1        0.0477
     13 C          63.4497   85.8204   16.2546 C.ar    1  UNL1       -0.0173
     14 C          64.6192   86.0551   15.3451 C.ar    1  UNL1       -0.0009
     15 C          64.9936   85.0227   14.3234 C.ar    1  UNL1        0.0394
     16 C          64.1986   83.7557   14.2112 C.ar    1  UNL1        0.1675
     17 O          64.5731   82.7232   13.1895 O.3     1  UNL1       -0.5029
     18 C          63.0292   83.5211   15.1208 C.ar    1  UNL1        0.1672
     19 O          62.2342   82.2540   15.0086 O.3     1  UNL1       -0.5029
     20 C          62.6547   84.5534   16.1425 C.ar    1  UNL1        0.0356
     21 H          65.3036   82.8698   12.6213 H       1  UNL1        0.2923
     22 H          62.4681   81.6091   14.3704 H       1  UNL1        0.2923
     23 S          63.1750   90.2366   12.8880 S.O2    1  UNL1        0.0608
     24 O          62.4676   91.5505   12.7366 O.2     1  UNL1       -0.1530
     25 O          63.8825   88.9226   13.0393 O.2     1  UNL1       -0.1530
     26 N          61.9305   89.5171   12.4597 N.3     1  UNL1       -0.1701
     27 H          62.1828   88.5356   12.3440 H       1  UNL1        0.1494
     28 C          61.2182   89.9317   11.2063 C.3     1  UNL1        0.1763
     29 O          60.4680   89.4194    8.7722 O.2     1  UNL1       -0.2732
     30 C          61.1209   88.9816   10.0497 C.2     1  UNL1        0.2439
     31 N          61.6764   87.5935   10.1707 N.am    1  UNL1       -0.2827
     32 H          62.1049   87.3061   11.0091 H       1  UNL1        0.1549
     33 C          61.5791   86.6433    9.0141 C.ar    1  UNL1        0.0505
     34 C          62.7869   85.8695    8.5754 C.ar    1  UNL1        0.0178
     35 C          62.6895   84.9193    7.4189 C.ar    1  UNL1        0.0379
     36 C          61.3844   84.7429    6.7010 C.ar    1  UNL1        0.1338
     37 O          61.2871   83.7927    5.5444 O.3     1  UNL1       -0.5055
     38 C          60.1766   85.5167    7.1396 C.ar    1  UNL1        0.0379
     39 C          60.2739   86.4669    8.2961 C.ar    1  UNL1        0.0178
     40 H          62.0416   83.3093    5.2704 H       1  UNL1        0.2922
@<TRIPOS>BOND
     1    29    30    2
     2    30    28    1
     3    28    26    1
     4    26    23    1
     5    23    24    2
     6    23    25    2
     7    23     1    1
     8     1     2   ar
     9     2     3   ar
    10     3     4   ar
    11     4     5   ar
    12     5     6   ar
    13     6     7    1
    14     7     8    2
    15     7     9   am
    16     9    11    1
    17    11    12    1
    18    12    13    1
    19    13    14   ar
    20    14    15   ar
    21    15    16   ar
    22    16    17    1
    23    16    18   ar
    24    18    19    1
    25    18    20   ar
    26    30    31   am
    27    31    33    1
    28    33    34   ar
    29    34    35   ar
    30    35    36   ar
    31    36    37    1
    32    36    38   ar
    33    38    39   ar
    34     6     1   ar
    35    20    13   ar
    36    39    33   ar
    37    26    27    1
    38     9    10    1
    39    17    21    1
    40    19    22    1
    41    31    32    1
    42    37    40    1
@<TRIPOS>MOLECULE
*****
 40 42 0 0 0
SMALL
GASTEIGER

@<TRIPOS>ATOM
      1 C          60.7330   88.0845    9.7257 C.ar    1  UNL1        0.1263
      2 C          59.7388   88.7596    8.8280 C.ar    1  UNL1        0.0200
      3 C          59.1847   88.0303    7.6402 C.ar    1  UNL1        0.0014
      4 C          59.6249   86.6260    7.3499 C.ar    1  UNL1        0.0002
      5 C          60.6191   85.9510    8.2476 C.ar    1  UNL1        0.0059
      6 C          61.1732   86.6802    9.4354 C.ar    1  UNL1        0.0719
      7 C          62.1674   86.0052   10.3332 C.2     1  UNL1        0.2472
      8 O          63.1194   84.9920    9.7701 O.2     1  UNL1       -0.2701
      9 N          62.2096   86.3434   11.7939 N.am    1  UNL1       -0.3005
     10 H          61.5848   87.0084   12.1635 H       1  UNL1        0.1498
     11 C          63.2038   85.6684   12.6916 C.3     1  UNL1        0.0944
     12 C          62.7400   84.6589   13.6995 C.3     1  UNL1        0.0477
     13 C          62.6758   83.2062   13.3311 C.ar    1  UNL1       -0.0173
     14 C          62.2760   82.1890   14.3584 C.ar    1  UNL1       -0.0009
     15 C          62.2118   80.7363   13.9901 C.ar    1  UNL1        0.0394
     16 C          62.5474   80.3010   12.5944 C.ar    1  UNL1        0.1675
     17 O          62.4832   78.8483   12.2261 O.3     1  UNL1       -0.5029
     18 C          62.9471   81.3183   11.5671 C.ar    1  UNL1        0.1672
     19 O          63.2827   80.8828   10.1714 O.3     1  UNL1       -0.5029
     20 C          63.0113   82.7709   11.9355 C.ar    1  UNL1        0.0356
     21 H          62.2335   78.2128   12.8678 H       1  UNL1        0.2923
     22 H          63.2426   79.9754    9.9414 H       1  UNL1        0.2923
     23 S          61.2872   88.8138   10.9137 S.O2    1  UNL1        0.0608
     24 O          60.0835   88.4195   11.7171 O.2     1  UNL1       -0.1530
     25 O          62.4909   89.2081   10.1102 O.2     1  UNL1       -0.1530
     26 N          61.8413   89.5430   12.1016 N.3     1  UNL1       -0.1701
     27 H          61.0458   89.9449   12.5977 H       1  UNL1        0.1494
     28 C          62.8339   90.6504   11.9058 C.3     1  UNL1        0.1763
     29 O          64.3158   89.6902   13.8116 O.2     1  UNL1       -0.2732
     30 C          63.9954   90.7912   12.8445 C.2     1  UNL1        0.2439
     31 N          64.8364   92.0329   12.8162 N.am    1  UNL1       -0.2827
     32 H          64.6260   92.7555   12.1815 H       1  UNL1        0.1549
     33 C          65.9979   92.1737   13.7549 C.ar    1  UNL1        0.0505
     34 C          65.7606   92.5190   15.1952 C.ar    1  UNL1        0.0178
     35 C          66.9221   92.6598   16.1338 C.ar    1  UNL1        0.0379
     36 C          68.3208   92.4552   15.6322 C.ar    1  UNL1        0.1338
     37 O          69.4824   92.5960   16.5709 O.3     1  UNL1       -0.5055
     38 C          68.5581   92.1099   14.1919 C.ar    1  UNL1        0.0379
     39 C          67.3966   91.9692   13.2533 C.ar    1  UNL1        0.0178
     40 H          69.3341   92.8117   17.4706 H       1  UNL1        0.2922
@<TRIPOS>BOND
     1    29    30    2
     2    30    28    1
     3    28    26    1
     4    26    23    1
     5    23    24    2
     6    23    25    2
     7    23     1    1
     8     1     2   ar
     9     2     3   ar
    10     3     4   ar
    11     4     5   ar
    12     5     6   ar
    13     6     7    1
    14     7     8    2
    15     7     9   am
    16     9    11    1
    17    11    12    1
    18    12    13    1
    19    13    14   ar
    20    14    15   ar
    21    15    16   ar
    22    16    17    1
    23    16    18   ar
    24    18    19    1
    25    18    20   ar
    26    30    31   am
    27    31    33    1
    28    33    34   ar
    29    34    35   ar
    30    35    36   ar
    31    36    37    1
    32    36    38   ar
    33    38    39   ar
    34     6     1   ar
    35    20    13   ar
    36    39    33   ar
    37    26    27    1
    38     9    10    1
    39    17    21    1
    40    19    22    1
    41    31    32    1
    42    37    40    1
@<TRIPOS>MOLECULE
*****
 40 42 0 0 0
SMALL
GASTEIGER

@<TRIPOS>ATOM
      1 C          64.1003   90.7483   13.0155 C.ar    1  UNL1        0.1263
      2 C          64.7367   91.7452   12.0929 C.ar    1  UNL1        0.0200
      3 C          66.0892   92.3081   12.4149 C.ar    1  UNL1        0.0014
      4 C          66.8054   91.8741   13.6594 C.ar    1  UNL1        0.0002
      5 C          66.1690   90.8772   14.5819 C.ar    1  UNL1        0.0059
      6 C          64.8165   90.3143   14.2600 C.ar    1  UNL1        0.0719
      7 C          64.1800   89.3173   15.1826 C.2     1  UNL1        0.2472
      8 O          63.4366   89.7877   16.3975 O.2     1  UNL1       -0.2701
      9 N          64.2869   87.8500   14.8901 N.am    1  UNL1       -0.3005
     10 H          64.7749   87.5413   14.0927 H       1  UNL1        0.1498
     11 C          63.6505   86.8531   15.8126 C.3     1  UNL1        0.0944
     12 C          64.2354   85.4787   15.9504 C.3     1  UNL1        0.0477
     13 C          63.8568   84.4015   14.9776 C.ar    1  UNL1       -0.0173
     14 C          62.6796   83.5158   15.2600 C.ar    1  UNL1       -0.0009
     15 C          62.3010   82.4386   14.2872 C.ar    1  UNL1        0.0394
     16 C          63.0996   82.2472   13.0320 C.ar    1  UNL1        0.1675
     17 O          62.7210   81.1700   12.0592 O.3     1  UNL1       -0.5029
     18 C          64.2768   83.1329   12.7496 C.ar    1  UNL1        0.1672
     19 O          65.0754   82.9414   11.4943 O.3     1  UNL1       -0.5029
     20 C          64.6554   84.2100   13.7224 C.ar    1  UNL1        0.0356
     21 H          61.9856   80.6167   12.2356 H       1  UNL1        0.2923
     22 H          64.8389   82.2685   10.8866 H       1  UNL1        0.2923
     23 S          62.7477   90.1853   12.6936 S.O2    1  UNL1        0.0608
     24 O          63.3864   88.9001   12.2576 O.2     1  UNL1       -0.1530
     25 O          62.1089   91.4706   13.1296 O.2     1  UNL1       -0.1530
     26 N          61.3951   89.6224   12.3717 N.3     1  UNL1       -0.1701
     27 H          61.4838   88.6067   12.4033 H       1  UNL1        0.1494
     28 C          60.7335   89.9589   11.0681 C.3     1  UNL1        0.1763
     29 O          60.2718   89.3899    8.5755 O.2     1  UNL1       -0.2732
     30 C          60.7982   88.9926    9.9227 C.2     1  UNL1        0.2439
     31 N          61.3894   87.6288   10.1246 N.am    1  UNL1       -0.2827
     32 H          61.7348   87.3680   11.0088 H       1  UNL1        0.1549
     33 C          61.4541   86.6624    8.9791 C.ar    1  UNL1        0.0505
     34 C          60.2285   86.3883    8.1590 C.ar    1  UNL1        0.0178
     35 C          60.2933   85.4219    7.0136 C.ar    1  UNL1        0.0379
     36 C          61.5837   84.7297    6.6884 C.ar    1  UNL1        0.1338
     37 O          61.6484   83.7633    5.5430 O.3     1  UNL1       -0.5055
     38 C          62.8093   85.0038    7.5086 C.ar    1  UNL1        0.0379
     39 C          62.7445   85.9702    8.6539 C.ar    1  UNL1        0.0178
     40 H          60.8828   83.5920    5.0307 H       1  UNL1        0.2922
@<TRIPOS>BOND
     1    29    30    2
     2    30    28    1
     3    28    26    1
     4    26    23    1
     5    23    24    2
     6    23    25    2
     7    23     1    1
     8     1     2   ar
     9     2     3   ar
    10     3     4   ar
    11     4     5   ar
    12     5     6   ar
    13     6     7    1
    14     7     8    2
    15     7     9   am
    16     9    11    1
    17    11    12    1
    18    12    13    1
    19    13    14   ar
    20    14    15   ar
    21    15    16   ar
    22    16    17    1
    23    16    18   ar
    24    18    19    1
    25    18    20   ar
    26    30    31   am
    27    31    33    1
    28    33    34   ar
    29    34    35   ar
    30    35    36   ar
    31    36    37    1
    32    36    38   ar
    33    38    39   ar
    34     6     1   ar
    35    20    13   ar
    36    39    33   ar
    37    26    27    1
    38     9    10    1
    39    17    21    1
    40    19    22    1
    41    31    32    1
    42    37    40    1
@<TRIPOS>MOLECULE
*****
 40 42 0 0 0
SMALL
GASTEIGER

@<TRIPOS>ATOM
      1 C          61.0048   88.2661    9.7622 C.ar    1  UNL1        0.1263
      2 C          59.9819   88.9261    8.8858 C.ar    1  UNL1        0.0200
      3 C          59.1972   88.1089    7.9028 C.ar    1  UNL1        0.0014
      4 C          59.4352   86.6317    7.7963 C.ar    1  UNL1        0.0002
      5 C          60.4580   85.9718    8.6727 C.ar    1  UNL1        0.0059
      6 C          61.2428   86.7889    9.6557 C.ar    1  UNL1        0.0719
      7 C          62.2657   86.1290   10.5323 C.2     1  UNL1        0.2472
      8 O          63.0490   84.9572   10.0193 O.2     1  UNL1       -0.2701
      9 N          62.5052   86.6409   11.9217 N.am    1  UNL1       -0.3005
     10 H          61.9910   87.4100   12.2584 H       1  UNL1        0.1498
     11 C          63.5280   85.9810   12.7982 C.3     1  UNL1        0.0944
     12 C          63.0927   85.0316   13.8749 C.3     1  UNL1        0.0477
     13 C          62.9202   83.5741   13.5648 C.ar    1  UNL1       -0.0173
     14 C          63.8794   82.8855   12.6397 C.ar    1  UNL1       -0.0009
     15 C          63.7069   81.4281   12.3296 C.ar    1  UNL1        0.0394
     16 C          62.5752   80.6594   12.9445 C.ar    1  UNL1        0.1675
     17 O          62.4027   79.2019   12.6344 O.3     1  UNL1       -0.5029
     18 C          61.6160   81.3480   13.8696 C.ar    1  UNL1        0.1672
     19 O          60.4842   80.5791   14.4845 O.3     1  UNL1       -0.5029
     20 C          61.7885   82.8054   14.1797 C.ar    1  UNL1        0.0356
     21 H          63.0018   78.7717   12.0566 H       1  UNL1        0.2923
     22 H          60.3765   79.6687   14.2908 H       1  UNL1        0.2923
     23 S          61.7896   89.0833   10.7453 S.O2    1  UNL1        0.0608
     24 O          60.6864   88.9334   11.7505 O.2     1  UNL1       -0.1530
     25 O          62.8927   89.2332    9.7401 O.2     1  UNL1       -0.1530
     26 N          62.5743   89.9004   11.7283 N.3     1  UNL1       -0.1701
     27 H          61.9451   90.1143   12.5021 H       1  UNL1        0.1494
     28 C          63.1917   91.1989   11.3006 C.3     1  UNL1        0.1763
     29 O          65.1059   92.9423   11.5162 O.2     1  UNL1       -0.2732
     30 C          64.3580   91.7604   12.0584 C.2     1  UNL1        0.2439
     31 N          64.7765   91.1401   13.3584 N.am    1  UNL1       -0.2827
     32 H          64.2857   90.3644   13.7142 H       1  UNL1        0.1549
     33 C          65.9429   91.7016   14.1163 C.ar    1  UNL1        0.0505
     34 C          67.3034   91.7308   13.4852 C.ar    1  UNL1        0.0178
     35 C          68.4697   92.2923   14.2431 C.ar    1  UNL1        0.0379
     36 C          68.2755   92.8246   15.6320 C.ar    1  UNL1        0.1338
     37 O          69.4419   93.3861   16.3899 O.3     1  UNL1       -0.5055
     38 C          66.9150   92.7954   16.2630 C.ar    1  UNL1        0.0379
     39 C          65.7488   92.2339   15.5051 C.ar    1  UNL1        0.0178
     40 H          70.2918   93.4044   15.9957 H       1  UNL1        0.2922
@<TRIPOS>BOND
     1    29    30    2
     2    30    28    1
     3    28    26    1
     4    26    23    1
     5    23    24    2
     6    23    25    2
     7    23     1    1
     8     1     2   ar
     9     2     3   ar
    10     3     4   ar
    11     4     5   ar
    12     5     6   ar
    13     6     7    1
    14     7     8    2
    15     7     9   am
    16     9    11    1
    17    11    12    1
    18    12    13    1
    19    13    14   ar
    20    14    15   ar
    21    15    16   ar
    22    16    17    1
    23    16    18   ar
    24    18    19    1
    25    18    20   ar
    26    30    31   am
    27    31    33    1
    28    33    34   ar
    29    34    35   ar
    30    35    36   ar
    31    36    37    1
    32    36    38   ar
    33    38    39   ar
    34     6     1   ar
    35    20    13   ar
    36    39    33   ar
    37    26    27    1
    38     9    10    1
    39    17    21    1
    40    19    22    1
    41    31    32    1
    42    37    40    1
@<TRIPOS>MOLECULE
*****
 40 42 0 0 0
SMALL
GASTEIGER

@<TRIPOS>ATOM
      1 C          63.1398   82.7800   12.1808 C.ar    1  UNL1        0.1263
      2 C          62.3992   81.4990   11.9344 C.ar    1  UNL1        0.0200
      3 C          61.9955   80.6320   13.0899 C.ar    1  UNL1        0.0014
      4 C          62.3323   81.0459   14.4918 C.ar    1  UNL1        0.0002
      5 C          63.0728   82.3269   14.7381 C.ar    1  UNL1        0.0059
      6 C          63.4766   83.1939   13.5827 C.ar    1  UNL1        0.0719
      7 C          64.2172   84.4749   13.8290 C.2     1  UNL1        0.2472
      8 O          65.7133   84.4677   13.9353 O.2     1  UNL1       -0.2701
      9 N          63.4615   85.7631   13.9690 N.am    1  UNL1       -0.3005
     10 H          62.4795   85.7678   13.8992 H       1  UNL1        0.1498
     11 C          64.2020   87.0441   14.2153 C.3     1  UNL1        0.0944
     12 C          63.4523   88.3411   14.2911 C.3     1  UNL1        0.0477
     13 C          64.1102   89.6146   13.8489 C.ar    1  UNL1       -0.0173
     14 C          63.6447   90.3052   12.6013 C.ar    1  UNL1       -0.0009
     15 C          64.3026   91.5786   12.1590 C.ar    1  UNL1        0.0394
     16 C          65.4259   92.1614   12.9643 C.ar    1  UNL1        0.1675
     17 O          66.0838   93.4348   12.5221 O.3     1  UNL1       -0.5029
     18 C          65.8913   91.4707   14.2119 C.ar    1  UNL1        0.1672
     19 O          67.0147   92.0536   15.0172 O.3     1  UNL1       -0.5029
     20 C          65.2335   90.1973   14.6541 C.ar    1  UNL1        0.0356
     21 H          65.7930   93.8663   11.7428 H       1  UNL1        0.2923
     22 H          67.4256   92.8491   14.7409 H       1  UNL1        0.2923
     23 S          63.5435   83.6471   11.0253 S.O2    1  UNL1        0.0608
     24 O          64.7074   82.7411   10.7521 O.2     1  UNL1       -0.1530
     25 O          62.3797   84.5531   11.2984 O.2     1  UNL1       -0.1530
     26 N          63.9473   84.5141    9.8698 N.3     1  UNL1       -0.1701
     27 H          64.3673   85.3552   10.2655 H       1  UNL1        0.1494
     28 C          62.9181   84.9694    8.8781 C.3     1  UNL1        0.1763
     29 O          60.6163   86.1414    8.5985 O.2     1  UNL1       -0.2732
     30 C          61.9740   86.0796    9.2332 C.2     1  UNL1        0.2439
     31 N          62.3876   87.1280   10.2230 N.am    1  UNL1       -0.2827
     32 H          63.2787   87.0874   10.6396 H       1  UNL1        0.1549
     33 C          61.4434   88.2382   10.5782 C.ar    1  UNL1        0.0505
     34 C          61.5928   89.5846    9.9341 C.ar    1  UNL1        0.0178
     35 C          60.6487   90.6947   10.2892 C.ar    1  UNL1        0.0379
     36 C          59.5552   90.4585   11.2885 C.ar    1  UNL1        0.1338
     37 O          58.6111   91.5688   11.6437 O.3     1  UNL1       -0.5055
     38 C          59.4059   89.1121   11.9327 C.ar    1  UNL1        0.0379
     39 C          60.3500   88.0020   11.5775 C.ar    1  UNL1        0.0178
     40 H          58.7044   92.4098   11.2413 H       1  UNL1        0.2922
@<TRIPOS>BOND
     1    29    30    2
     2    30    28    1
     3    28    26    1
     4    26    23    1
     5    23    24    2
     6    23    25    2
     7    23     1    1
     8     1     2   ar
     9     2     3   ar
    10     3     4   ar
    11     4     5   ar
    12     5     6   ar
    13     6     7    1
    14     7     8    2
    15     7     9   am
    16     9    11    1
    17    11    12    1
    18    12    13    1
    19    13    14   ar
    20    14    15   ar
    21    15    16   ar
    22    16    17    1
    23    16    18   ar
    24    18    19    1
    25    18    20   ar
    26    30    31   am
    27    31    33    1
    28    33    34   ar
    29    34    35   ar
    30    35    36   ar
    31    36    37    1
    32    36    38   ar
    33    38    39   ar
    34     6     1   ar
    35    20    13   ar
    36    39    33   ar
    37    26    27    1
    38     9    10    1
    39    17    21    1
    40    19    22    1
    41    31    32    1
    42    37    40    1
