@<TRIPOS>MOLECULE
*****
 25 29 0 0 0
SMALL
GASTEIGER

@<TRIPOS>ATOM
      1 N          62.9937   90.8890   13.0353 N.pl3   1  UNL1       -0.2535
      2 H          62.3256   91.3297   13.6085 H       1  UNL1        0.1579
      3 C          62.5900   89.7391   12.1608 C.2     1  UNL1        0.2847
      4 N          63.0230   88.3123   12.3247 N.2     1  UNL1       -0.2204
      5 C          62.3830   87.5055   11.2340 C.3     1  UNL1        0.1712
      6 C          61.5544   88.4336   10.3962 C.3     1  UNL1        0.1729
      7 C          60.7726   89.4768    9.6543 C.3     1  UNL1        0.1147
      8 N          59.9589   89.0921    8.4543 N.3     1  UNL1       -0.2697
      9 C          59.9270   87.6641    7.9962 C.3     1  UNL1        0.0723
     10 C          60.7089   86.6209    8.7381 C.3     1  UNL1        0.0209
     11 C          61.5225   87.0057    9.9381 C.3     1  UNL1        0.0429
     12 C          61.1747   88.2541    9.8362 C.3     1  UNL1        0.0209
     13 C          60.7577   88.8104    9.4405 C.3     1  UNL1        0.0723
     14 O          61.6824   89.8140   10.9689 O.2     1  UNL1       -0.4536
     15 C          66.3717   92.6113   11.8634 C.ar    1  UNL1        0.1535
     16 C          64.9499   92.1329   11.8624 C.ar    1  UNL1        0.0720
     17 C          64.4154   91.3673   13.0363 C.ar    1  UNL1        0.1402
     18 N          65.3025   91.0801   14.2113 N.ar    1  UNL1       -0.2087
     19 C          66.7242   91.5584   14.2123 C.ar    1  UNL1        0.2014
     20 N          67.2587   92.3240   13.0384 N.ar    1  UNL1       -0.2061
     21 C          67.3827   95.1733    9.1286 C.ar    1  UNL1        0.1197
     22 C          66.6604   94.8274   10.3969 C.ar    1  UNL1        0.1035
     23 N          66.9063   93.3769   10.6895 N.ar    1  UNL1       -0.2711
     24 C          67.7805   92.8264    9.6020 C.ar    1  UNL1        0.1840
     25 N          68.0750   93.9366    8.6374 N.ar    1  UNL1       -0.2220
@<TRIPOS>BOND
     1    21    22   ar
     2    22    23   ar
     3    23    15    1
     4    15    16   ar
     5    16    17   ar
     6    17     1    1
     7     1     3    1
     8     3     4    2
     9     4     5    1
    10     6     5    1
    11     6     7    1
    12     7     8    1
    13     8     9    1
    14     9    10    1
    15    10    11    1
    16    11    12    1
    17    12    13    1
    18     6    14    1
    19    17    18   ar
    20    18    19   ar
    21    19    20   ar
    22    23    24   ar
    23    24    25   ar
    24    25    21   ar
    25    20    15   ar
    26    14     3    1
    27    11     6    1
    28    13     8    1
    29     1     2    1
@<TRIPOS>MOLECULE
*****
 25 29 0 0 0
SMALL
GASTEIGER

@<TRIPOS>ATOM
      1 N          61.9009   88.8069   11.5362 N.pl3   1  UNL1       -0.2535
      2 H          61.1182   89.1736   11.0649 H       1  UNL1        0.1579
      3 C          62.2355   87.3499   11.4138 C.2     1  UNL1        0.2847
      4 N          62.0907   86.5128   10.1776 N.2     1  UNL1       -0.2204
      5 C          62.5393   85.1196   10.5060 C.3     1  UNL1        0.1712
      6 C          62.9613   85.0956   11.9452 C.3     1  UNL1        0.1729
      7 C          63.3461   85.2241   13.3893 C.3     1  UNL1        0.1147
      8 N          63.8649   84.0313   14.1362 N.3     1  UNL1       -0.2697
      9 C          63.9988   82.7099   13.4391 C.3     1  UNL1        0.0723
     10 C          63.6140   82.5814   11.9951 C.3     1  UNL1        0.0209
     11 C          63.0953   83.7743   11.2481 C.3     1  UNL1        0.0429
     12 C          63.2034   84.5390   12.2938 C.3     1  UNL1        0.0209
     13 C          63.4086   84.6075   13.0639 C.3     1  UNL1        0.0723
     14 O          62.7736   86.4740   12.5062 O.2     1  UNL1       -0.4536
     15 C          64.4985   91.6263   12.5630 C.ar    1  UNL1        0.1535
     16 C          63.6404   90.7278   11.7224 C.ar    1  UNL1        0.0720
     17 C          62.7590   89.7054   12.3766 C.ar    1  UNL1        0.1402
     18 N          62.7358   89.5816   13.8714 N.ar    1  UNL1       -0.2087
     19 C          63.5939   90.4800   14.7118 C.ar    1  UNL1        0.2014
     20 N          64.4752   91.5024   14.0576 N.ar    1  UNL1       -0.2061
     21 C          66.5901   93.9188   10.2317 C.ar    1  UNL1        0.1197
     22 C          65.6616   92.7592   10.4396 C.ar    1  UNL1        0.1035
     23 N          65.3798   92.6486   11.9087 N.ar    1  UNL1       -0.2711
     24 C          66.1342   93.7399   12.6087 C.ar    1  UNL1        0.1840
     25 N          66.8821   94.5249   11.5723 N.ar    1  UNL1       -0.2220
@<TRIPOS>BOND
     1    21    22   ar
     2    22    23   ar
     3    23    15    1
     4    15    16   ar
     5    16    17   ar
     6    17     1    1
     7     1     3    1
     8     3     4    2
     9     4     5    1
    10     6     5    1
    11     6     7    1
    12     7     8    1
    13     8     9    1
    14     9    10    1
    15    10    11    1
    16    11    12    1
    17    12    13    1
    18     6    14    1
    19    17    18   ar
    20    18    19   ar
    21    19    20   ar
    22    23    24   ar
    23    24    25   ar
    24    25    21   ar
    25    20    15   ar
    26    14     3    1
    27    11     6    1
    28    13     8    1
    29     1     2    1
@<TRIPOS>MOLECULE
*****
 25 29 0 0 0
SMALL
GASTEIGER

@<TRIPOS>ATOM
      1 N          64.8462   85.9116   15.3061 N.pl3   1  UNL1       -0.2535
      2 H          65.7096   85.8014   15.7661 H       1  UNL1        0.1579
      3 C          64.1960   84.7358   14.6394 C.2     1  UNL1        0.2847
      4 N          63.1316   83.8623   15.2343 N.2     1  UNL1       -0.2204
      5 C          62.7739   82.8136   14.2232 C.3     1  UNL1        0.1712
      6 C          63.6172   83.0389   13.0034 C.3     1  UNL1        0.1729
      7 C          64.5240   83.3859   11.8600 C.3     1  UNL1        0.1147
      8 N          64.4937   82.5671   10.6036 N.3     1  UNL1       -0.2697
      9 C          63.5567   81.4012   10.4905 C.3     1  UNL1        0.0723
     10 C          62.6500   81.0542   11.6339 C.3     1  UNL1        0.0209
     11 C          62.6803   81.8731   12.8904 C.3     1  UNL1        0.0429
     12 C          63.6031   82.6568   12.4171 C.3     1  UNL1        0.0209
     13 C          64.0867   82.8419   11.8072 C.3     1  UNL1        0.0723
     14 O          64.4962   84.2269   13.2606 O.2     1  UNL1       -0.4536
     15 C          63.6218   89.4582   14.0128 C.ar    1  UNL1        0.1535
     16 C          64.2873   88.1142   14.0468 C.ar    1  UNL1        0.0720
     17 C          64.1808   87.2555   15.2721 C.ar    1  UNL1        0.1402
     18 N          63.4090   87.7407   16.4633 N.ar    1  UNL1       -0.2087
     19 C          62.7436   89.0846   16.4292 C.ar    1  UNL1        0.2014
     20 N          62.8501   89.9433   15.2039 N.ar    1  UNL1       -0.2061
     21 C          63.3750   91.2157   10.5609 C.ar    1  UNL1        0.1197
     22 C          62.9542   90.1377   11.5153 C.ar    1  UNL1        0.1035
     23 N          63.7283   90.3170   12.7875 N.ar    1  UNL1       -0.2711
     24 C          64.6275   91.5057   12.6194 C.ar    1  UNL1        0.1840
     25 N          64.4092   92.0611   11.2433 N.ar    1  UNL1       -0.2220
@<TRIPOS>BOND
     1    21    22   ar
     2    22    23   ar
     3    23    15    1
     4    15    16   ar
     5    16    17   ar
     6    17     1    1
     7     1     3    1
     8     3     4    2
     9     4     5    1
    10     6     5    1
    11     6     7    1
    12     7     8    1
    13     8     9    1
    14     9    10    1
    15    10    11    1
    16    11    12    1
    17    12    13    1
    18     6    14    1
    19    17    18   ar
    20    18    19   ar
    21    19    20   ar
    22    23    24   ar
    23    24    25   ar
    24    25    21   ar
    25    20    15   ar
    26    14     3    1
    27    11     6    1
    28    13     8    1
    29     1     2    1
@<TRIPOS>MOLECULE
*****
 25 29 0 0 0
SMALL
GASTEIGER

@<TRIPOS>ATOM
      1 N          63.1922   90.7964   12.2975 N.pl3   1  UNL1       -0.2535
      2 H          62.7435   91.4660   11.7322 H       1  UNL1        0.1579
      3 C          64.1222   91.2379   13.3885 C.2     1  UNL1        0.2847
      4 N          63.7581   91.4388   14.8297 N.2     1  UNL1       -0.2204
      5 C          64.9905   91.8810   15.5617 C.3     1  UNL1        0.1712
      6 C          66.1161   91.9533   14.5729 C.3     1  UNL1        0.1729
      7 C          67.1384   91.9791   13.4756 C.3     1  UNL1        0.1147
      8 N          68.5524   92.3788   13.7770 N.3     1  UNL1       -0.2697
      9 C          68.9441   92.7526   15.1758 C.3     1  UNL1        0.0723
     10 C          67.9219   92.7269   16.2732 C.3     1  UNL1        0.0209
     11 C          66.5079   92.3272   15.9717 C.3     1  UNL1        0.0429
     12 C          66.7760   92.1398   14.7136 C.3     1  UNL1        0.0209
     13 C          67.3212   92.1536   14.1283 C.3     1  UNL1        0.0723
     14 O          65.5795   91.5558   13.2298 O.2     1  UNL1       -0.4536
     15 C          61.8822   87.4258   10.6625 C.ar    1  UNL1        0.1535
     16 C          62.1285   88.8876   10.8922 C.ar    1  UNL1        0.0720
     17 C          62.9459   89.3347   12.0677 C.ar    1  UNL1        0.1402
     18 N          63.5170   88.3202   13.0136 N.ar    1  UNL1       -0.2087
     19 C          63.2707   86.8585   12.7839 C.ar    1  UNL1        0.2014
     20 N          62.4533   86.4114   11.6083 N.ar    1  UNL1       -0.2061
     21 C          59.2604   86.7634    7.8781 C.ar    1  UNL1        0.1197
     22 C          59.6999   87.4810    9.1199 C.ar    1  UNL1        0.1035
     23 N          61.0648   86.9786    9.4870 N.ar    1  UNL1       -0.2711
     24 C          61.4688   85.9506    8.4721 C.ar    1  UNL1        0.1840
     25 N          60.3536   85.8177    7.4778 N.ar    1  UNL1       -0.2220
@<TRIPOS>BOND
     1    21    22   ar
     2    22    23   ar
     3    23    15    1
     4    15    16   ar
     5    16    17   ar
     6    17     1    1
     7     1     3    1
     8     3     4    2
     9     4     5    1
    10     6     5    1
    11     6     7    1
    12     7     8    1
    13     8     9    1
    14     9    10    1
    15    10    11    1
    16    11    12    1
    17    12    13    1
    18     6    14    1
    19    17    18   ar
    20    18    19   ar
    21    19    20   ar
    22    23    24   ar
    23    24    25   ar
    24    25    21   ar
    25    20    15   ar
    26    14     3    1
    27    11     6    1
    28    13     8    1
    29     1     2    1
@<TRIPOS>MOLECULE
*****
 25 29 0 0 0
SMALL
GASTEIGER

@<TRIPOS>ATOM
      1 N          62.2568   90.7496   12.1131 N.pl3   1  UNL1       -0.2535
      2 H          61.5799   91.1528   12.7035 H       1  UNL1        0.1579
      3 C          61.9255   89.5178   11.3238 C.2     1  UNL1        0.2847
      4 N          62.4679   88.1410   11.5693 N.2     1  UNL1       -0.2204
      5 C          61.8713   87.2189   10.5476 C.3     1  UNL1        0.1712
      6 C          60.9603   88.0258    9.6707 C.3     1  UNL1        0.1729
      7 C          60.0888   88.9570    8.8812 C.3     1  UNL1        0.1147
      8 N          59.2854   88.4347    7.7272 N.3     1  UNL1       -0.2697
      9 C          59.3533   86.9813    7.3628 C.3     1  UNL1        0.0723
     10 C          60.2247   86.0501    8.1523 C.3     1  UNL1        0.0209
     11 C          61.0282   86.5723    9.3063 C.3     1  UNL1        0.0429
     12 C          60.5853   87.7820    9.1322 C.3     1  UNL1        0.0209
     13 C          60.1205   88.2787    8.7111 C.3     1  UNL1        0.0723
     14 O          60.9938   89.4466   10.1505 O.2     1  UNL1       -0.4536
     15 C          65.8308   92.1520   13.1181 C.ar    1  UNL1        0.1535
     16 C          64.4681   91.5344   13.2283 C.ar    1  UNL1        0.0720
     17 C          63.6193   91.3671   12.0030 C.ar    1  UNL1        0.1402
     18 N          64.1331   91.8171   10.6675 N.ar    1  UNL1       -0.2087
     19 C          65.4956   92.4346   10.5573 C.ar    1  UNL1        0.2014
     20 N          66.3444   92.6020   11.7826 N.ar    1  UNL1       -0.2061
     21 C          68.6015   92.4507   15.8198 C.ar    1  UNL1        0.1197
     22 C          68.1748   92.2135   14.4015 C.ar    1  UNL1        0.1035
     23 N          66.6796   92.3193   14.3434 N.ar    1  UNL1       -0.2711
     24 C          66.1824   92.6219   15.7259 C.ar    1  UNL1        0.1840
     25 N          67.3701   92.7031   16.6382 N.ar    1  UNL1       -0.2220
@<TRIPOS>BOND
     1    21    22   ar
     2    22    23   ar
     3    23    15    1
     4    15    16   ar
     5    16    17   ar
     6    17     1    1
     7     1     3    1
     8     3     4    2
     9     4     5    1
    10     6     5    1
    11     6     7    1
    12     7     8    1
    13     8     9    1
    14     9    10    1
    15    10    11    1
    16    11    12    1
    17    12    13    1
    18     6    14    1
    19    17    18   ar
    20    18    19   ar
    21    19    20   ar
    22    23    24   ar
    23    24    25   ar
    24    25    21   ar
    25    20    15   ar
    26    14     3    1
    27    11     6    1
    28    13     8    1
    29     1     2    1
@<TRIPOS>MOLECULE
*****
 25 29 0 0 0
SMALL
GASTEIGER

@<TRIPOS>ATOM
      1 N          63.1814   89.4440   13.0707 N.pl3   1  UNL1       -0.2535
      2 H          62.3565   89.6400   12.5704 H       1  UNL1        0.1579
      3 C          63.5156   88.0294   13.4413 C.2     1  UNL1        0.2847
      4 N          64.3411   87.5975   14.6168 N.2     1  UNL1       -0.2204
      5 C          64.4187   86.0995   14.6034 C.3     1  UNL1        0.1712
      6 C          63.6412   85.6057   13.4195 C.3     1  UNL1        0.1729
      7 C          62.8330   85.2625   12.2034 C.3     1  UNL1        0.1147
      8 N          62.6464   83.8278   11.8072 N.3     1  UNL1       -0.2697
      9 C          63.2679   82.7364   12.6272 C.3     1  UNL1        0.0723
     10 C          64.0761   83.0796   13.8433 C.3     1  UNL1        0.0209
     11 C          64.2627   84.5143   14.2395 C.3     1  UNL1        0.0429
     12 C          63.5541   84.9362   13.2346 C.3     1  UNL1        0.0209
     13 C          63.1231   84.7531   12.5860 C.3     1  UNL1        0.0723
     14 O          63.0831   86.7985   12.7013 O.2     1  UNL1       -0.4536
     15 C          65.6463   92.5425   12.7983 C.ar    1  UNL1        0.1535
     16 C          64.7235   91.4265   12.4064 C.ar    1  UNL1        0.0720
     17 C          64.1041   90.5599   13.4625 C.ar    1  UNL1        0.1402
     18 N          64.4073   90.8091   14.9102 N.ar    1  UNL1       -0.2087
     19 C          65.3300   91.9250   15.3019 C.ar    1  UNL1        0.2014
     20 N          65.9494   92.7916   14.2459 N.ar    1  UNL1       -0.2061
     21 C          66.9117   95.3489   10.4344 C.ar    1  UNL1        0.1197
     22 C          66.1327   94.8994   11.6348 C.ar    1  UNL1        0.1035
     23 N          66.2657   93.4091   11.7422 N.ar    1  UNL1       -0.2711
     24 C          67.1269   92.9377   10.6082 C.ar    1  UNL1        0.1840
     25 N          67.5261   94.1366    9.8000 N.ar    1  UNL1       -0.2220
@<TRIPOS>BOND
     1    21    22   ar
     2    22    23   ar
     3    23    15    1
     4    15    16   ar
     5    16    17   ar
     6    17     1    1
     7     1     3    1
     8     3     4    2
     9     4     5    1
    10     6     5    1
    11     6     7    1
    12     7     8    1
    13     8     9    1
    14     9    10    1
    15    10    11    1
    16    11    12    1
    17    12    13    1
    18     6    14    1
    19    17    18   ar
    20    18    19   ar
    21    19    20   ar
    22    23    24   ar
    23    24    25   ar
    24    25    21   ar
    25    20    15   ar
    26    14     3    1
    27    11     6    1
    28    13     8    1
    29     1     2    1
@<TRIPOS>MOLECULE
*****
 25 29 0 0 0
SMALL
GASTEIGER

@<TRIPOS>ATOM
      1 N          61.5214   90.3784   10.1525 N.pl3   1  UNL1       -0.2535
      2 H          61.1652   91.1740    9.6949 H       1  UNL1        0.1579
      3 C          62.4162   90.5373   11.3458 C.2     1  UNL1        0.2847
      4 N          62.2424   89.8628   12.6743 N.2     1  UNL1       -0.2204
      5 C          63.3608   90.3073   13.5696 C.3     1  UNL1        0.1712
      6 C          64.2258   91.2565   12.7946 C.3     1  UNL1        0.1729
      7 C          64.9925   92.1839   11.8991 C.3     1  UNL1        0.1147
      8 N          66.2249   92.8704   12.4089 N.3     1  UNL1       -0.2697
      9 C          66.6906   92.6295   13.8142 C.3     1  UNL1        0.0723
     10 C          65.9239   91.7021   14.7098 C.3     1  UNL1        0.0209
     11 C          64.6915   91.0156   14.1999 C.3     1  UNL1        0.0429
     12 C          64.8009   91.5769   13.0325 C.3     1  UNL1        0.0209
     13 C          65.2099   92.0715   12.5549 C.3     1  UNL1        0.0723
     14 O          63.6420   91.3987   11.4202 O.2     1  UNL1       -0.4536
     15 C          61.6365   86.4526    9.5821 C.ar    1  UNL1        0.1535
     16 C          61.9886   87.8238   10.0783 C.ar    1  UNL1        0.0720
     17 C          61.1693   89.0073    9.6564 C.ar    1  UNL1        0.1402
     18 N          59.9979   88.8198    8.7384 N.ar    1  UNL1       -0.2087
     19 C          59.6458   87.4487    8.2423 C.ar    1  UNL1        0.2014
     20 N          60.4652   86.2652    8.6642 N.ar    1  UNL1       -0.2061
     21 C          63.4686   83.5269   11.3565 C.ar    1  UNL1        0.1197
     22 C          62.5361   84.7013   11.3900 C.ar    1  UNL1        0.1035
     23 N          62.4558   85.2691   10.0040 N.ar    1  UNL1       -0.2711
     24 C          63.3387   84.4456    9.1138 C.ar    1  UNL1        0.1840
     25 N          63.9646   83.3689    9.9498 N.ar    1  UNL1       -0.2220
@<TRIPOS>BOND
     1    21    22   ar
     2    22    23   ar
     3    23    15    1
     4    15    16   ar
     5    16    17   ar
     6    17     1    1
     7     1     3    1
     8     3     4    2
     9     4     5    1
    10     6     5    1
    11     6     7    1
    12     7     8    1
    13     8     9    1
    14     9    10    1
    15    10    11    1
    16    11    12    1
    17    12    13    1
    18     6    14    1
    19    17    18   ar
    20    18    19   ar
    21    19    20   ar
    22    23    24   ar
    23    24    25   ar
    24    25    21   ar
    25    20    15   ar
    26    14     3    1
    27    11     6    1
    28    13     8    1
    29     1     2    1
@<TRIPOS>MOLECULE
*****
 25 29 0 0 0
SMALL
GASTEIGER

@<TRIPOS>ATOM
      1 N          64.7295   87.2115   14.9286 N.pl3   1  UNL1       -0.2535
      2 H          65.4999   87.3209   15.5316 H       1  UNL1        0.1579
      3 C          64.0116   85.8963   14.8599 C.2     1  UNL1        0.2847
      4 N          62.9462   85.4229   15.8038 N.2     1  UNL1       -0.2204
      5 C          62.5093   84.0575   15.3624 C.3     1  UNL1        0.1712
      6 C          63.3045   83.6870   14.1458 C.3     1  UNL1        0.1729
      7 C          64.1704   83.4560   12.9429 C.3     1  UNL1        0.1147
      8 N          64.0570   82.1742   12.1722 N.3     1  UNL1       -0.2697
      9 C          63.0778   81.1233   12.6043 C.3     1  UNL1        0.0723
     10 C          62.2119   81.3543   13.8071 C.3     1  UNL1        0.0209
     11 C          62.3252   82.6362   14.5778 C.3     1  UNL1        0.0429
     12 C          63.2516   83.0888   13.7861 C.3     1  UNL1        0.0209
     13 C          63.7134   82.9656   13.1446 C.3     1  UNL1        0.0723
     14 O          64.2330   84.8234   13.8352 O.2     1  UNL1       -0.4536
     15 C          62.9117   89.2627   12.0582 C.ar    1  UNL1        0.1535
     16 C          63.3678   88.1139   12.9083 C.ar    1  UNL1        0.0720
     17 C          64.2734   88.3601   14.0785 C.ar    1  UNL1        0.1402
     18 N          64.7230   89.7549   14.3985 N.ar    1  UNL1       -0.2087
     19 C          64.2670   90.9036   13.5484 C.ar    1  UNL1        0.2014
     20 N          63.3614   90.6574   12.3783 N.ar    1  UNL1       -0.2061
     21 C          60.2851   89.3028    9.2008 C.ar    1  UNL1        0.1197
     22 C          60.9441   89.9481   10.3837 C.ar    1  UNL1        0.1035
     23 N          62.0061   89.0165   10.8881 N.ar    1  UNL1       -0.2711
     24 C          62.0033   87.7954   10.0169 C.ar    1  UNL1        0.1840
     25 N          60.9397   87.9724    8.9742 N.ar    1  UNL1       -0.2220
@<TRIPOS>BOND
     1    21    22   ar
     2    22    23   ar
     3    23    15    1
     4    15    16   ar
     5    16    17   ar
     6    17     1    1
     7     1     3    1
     8     3     4    2
     9     4     5    1
    10     6     5    1
    11     6     7    1
    12     7     8    1
    13     8     9    1
    14     9    10    1
    15    10    11    1
    16    11    12    1
    17    12    13    1
    18     6    14    1
    19    17    18   ar
    20    18    19   ar
    21    19    20   ar
    22    23    24   ar
    23    24    25   ar
    24    25    21   ar
    25    20    15   ar
    26    14     3    1
    27    11     6    1
    28    13     8    1
    29     1     2    1
@<TRIPOS>MOLECULE
*****
 25 29 0 0 0
SMALL
GASTEIGER

@<TRIPOS>ATOM
      1 N          61.6627   87.0445    8.9336 N.pl3   1  UNL1       -0.2535
      2 H          61.3703   87.0201    7.9938 H       1  UNL1        0.1579
      3 C          62.3572   85.8583    9.5340 C.2     1  UNL1        0.2847
      4 N          63.1906   84.8558    8.7921 N.2     1  UNL1       -0.2204
      5 C          63.6888   83.8443    9.7814 C.3     1  UNL1        0.1712
      6 C          63.1633   84.2216   11.1347 C.3     1  UNL1        0.1729
      7 C          62.5681   84.7208   12.4178 C.3     1  UNL1        0.1147
      8 N          62.8211   83.9830   13.6990 N.3     1  UNL1       -0.2697
      9 C          63.6693   82.7459   13.6972 C.3     1  UNL1        0.0723
     10 C          64.2645   82.2467   12.4141 C.3     1  UNL1        0.0209
     11 C          64.0115   82.9845   11.1328 C.3     1  UNL1        0.0429
     12 C          63.2814   83.8773   11.7326 C.3     1  UNL1        0.0209
     13 C          62.9639   84.1435   12.4169 C.3     1  UNL1        0.0723
     14 O          62.3403   85.4663   10.9818 O.2     1  UNL1       -0.4536
     15 C          62.3211   90.2877   11.1241 C.ar    1  UNL1        0.1535
     16 C          62.5702   89.0642   10.2926 C.ar    1  UNL1        0.0720
     17 C          61.4137   88.2679    9.7650 C.ar    1  UNL1        0.1402
     18 N          60.0082   88.6950   10.0688 N.ar    1  UNL1       -0.2087
     19 C          59.7592   89.9184   10.9002 C.ar    1  UNL1        0.2014
     20 N          60.9157   90.7147   11.4278 N.ar    1  UNL1       -0.2061
     21 C          65.4274   92.5248   11.7657 C.ar    1  UNL1        0.1197
     22 C          64.4327   91.9005   10.8325 C.ar    1  UNL1        0.1035
     23 N          63.4776   91.0841   11.6517 N.ar    1  UNL1       -0.2711
     24 C          63.8820   91.2038   13.0912 C.ar    1  UNL1        0.1840
     25 N          65.0870   92.0942   13.1616 N.ar    1  UNL1       -0.2220
@<TRIPOS>BOND
     1    21    22   ar
     2    22    23   ar
     3    23    15    1
     4    15    16   ar
     5    16    17   ar
     6    17     1    1
     7     1     3    1
     8     3     4    2
     9     4     5    1
    10     6     5    1
    11     6     7    1
    12     7     8    1
    13     8     9    1
    14     9    10    1
    15    10    11    1
    16    11    12    1
    17    12    13    1
    18     6    14    1
    19    17    18   ar
    20    18    19   ar
    21    19    20   ar
    22    23    24   ar
    23    24    25   ar
    24    25    21   ar
    25    20    15   ar
    26    14     3    1
    27    11     6    1
    28    13     8    1
    29     1     2    1
