@<TRIPOS>MOLECULE
*****
 28 29 0 0 0
SMALL
GASTEIGER

@<TRIPOS>ATOM
      1 C          62.9564   85.6906   12.5758 C.ar    1  UNL1        0.1203
      2 N          63.7596   86.2198   13.7268 N.ar    1  UNL1       -0.2310
      3 C          63.8730   87.7070   13.5680 C.ar    1  UNL1        0.0983
      4 C          64.5491   88.7565   14.3996 C.ar    1  UNL1        0.0206
      5 C          64.4921   90.1960   13.9819 C.ar    1  UNL1        0.0017
      6 C          63.7590   90.5861   12.7327 C.ar    1  UNL1        0.0016
      7 C          63.0829   89.5366   11.9012 C.ar    1  UNL1        0.0188
      8 C          63.1399   88.0971   12.3189 C.ar    1  UNL1        0.0786
      9 N          62.5734   86.8509   11.7056 N.ar    1  UNL1       -0.3134
     10 C          65.1682   91.2456   14.8134 C.2     1  UNL1        0.0048
     11 C          66.6441   91.4752   14.6765 C.2     1  UNL1        0.0598
     12 C          67.3202   92.5248   15.5081 C.2     1  UNL1        0.2679
     13 O          66.6657   93.0252   16.7615 O.2     1  UNL1       -0.2681
     14 N          68.6508   93.0738   15.0861 N.am    1  UNL1       -0.1934
     15 O          69.3268   94.1234   15.9176 O.3     1  UNL1       -0.2949
     16 H          69.0804   92.7454   14.2634 H       1  UNL1        0.1825
     17 H          68.7737   94.3325   16.6866 H       1  UNL1        0.2414
     18 C          62.5990   84.2535   12.3368 C.3     1  UNL1        0.0639
     19 C          63.2805   83.4827   11.2454 C.3     1  UNL1        0.0079
     20 C          62.7349   81.2598   12.4747 C.3     1  UNL1        0.0000
     21 C          63.3443   81.9855   11.3119 C.3     1  UNL1        0.0005
     22 C          61.7658   86.7778   10.4437 C.3     1  UNL1        0.1245
     23 C          60.3873   87.3673   10.4003 C.3     1  UNL1        0.0969
     24 N          60.0772   88.4803    9.4437 N.3     1  UNL1       -0.2711
     25 C          60.1778   89.9072    9.8952 C.3     1  UNL1        0.0722
     26 C          59.6155   90.3145   11.2248 C.3     1  UNL1        0.0188
     27 C          59.6666   88.1665    8.0356 C.3     1  UNL1        0.0722
     28 C          59.0359   86.8437    7.7154 C.3     1  UNL1        0.0188
@<TRIPOS>BOND
     1    20    21    1
     2    21    19    1
     3    19    18    1
     4    18     1    1
     5     1     2   ar
     6     2     3   ar
     7     3     4   ar
     8     4     5   ar
     9     5    10    1
    10    10    11    2
    11    11    12    1
    12    12    13    2
    13    12    14   am
    14    14    15    1
    15     5     6   ar
    16     6     7   ar
    17     7     8   ar
    18     8     9   ar
    19     9    22    1
    20    22    23    1
    21    23    24    1
    22    24    25    1
    23    25    26    1
    24    24    27    1
    25    27    28    1
    26     9     1   ar
    27     8     3   ar
    28    14    16    1
    29    15    17    1
@<TRIPOS>MOLECULE
*****
 28 29 0 0 0
SMALL
GASTEIGER

@<TRIPOS>ATOM
      1 C          62.9297   85.5846   12.6096 C.ar    1  UNL1        0.1203
      2 N          63.7200   86.0956   13.7776 N.ar    1  UNL1       -0.2310
      3 C          63.8578   87.5819   13.6294 C.ar    1  UNL1        0.0983
      4 C          64.5342   88.6168   14.4788 C.ar    1  UNL1        0.0206
      5 C          64.5056   90.0593   14.0685 C.ar    1  UNL1        0.0017
      6 C          63.8004   90.4669   12.8089 C.ar    1  UNL1        0.0016
      7 C          63.1240   89.4320   11.9595 C.ar    1  UNL1        0.0188
      8 C          63.1527   87.9895   12.3698 C.ar    1  UNL1        0.0786
      9 N          62.5791   86.7551   11.7395 N.ar    1  UNL1       -0.3134
     10 C          65.1820   91.0942   14.9178 C.2     1  UNL1        0.0048
     11 C          66.5868   91.5183   14.6068 C.2     1  UNL1        0.0598
     12 C          67.2632   92.5533   15.4562 C.2     1  UNL1        0.2679
     13 O          66.6054   93.0379   16.7141 O.2     1  UNL1       -0.2681
     14 N          68.5974   93.1036   15.0476 N.am    1  UNL1       -0.1934
     15 O          69.2738   94.1385   15.8969 O.3     1  UNL1       -0.2949
     16 H          69.0292   92.7855   14.2220 H       1  UNL1        0.1825
     17 H          68.7184   94.3385   16.6666 H       1  UNL1        0.2414
     18 C          62.5558   84.1543   12.3561 C.3     1  UNL1        0.0639
     19 C          63.6209   83.1435   12.0498 C.3     1  UNL1        0.0079
     20 C          63.8850   83.7243    9.5313 C.3     1  UNL1        0.0000
     21 C          63.8565   82.7078   10.6340 C.3     1  UNL1        0.0005
     22 C          61.7929   86.7008   10.4632 C.3     1  UNL1        0.1245
     23 C          60.4232   87.3087   10.3996 C.3     1  UNL1        0.0969
     24 N          60.1505   88.4468    9.4612 N.3     1  UNL1       -0.2711
     25 C          59.6942   88.1701    8.0594 C.3     1  UNL1        0.0722
     26 C          59.0384   86.8623    7.7284 C.3     1  UNL1        0.0188
     27 C          60.3342   89.8615    9.9247 C.3     1  UNL1        0.0722
     28 C          59.6636   90.3321   11.1813 C.3     1  UNL1        0.0188
@<TRIPOS>BOND
     1    20    21    1
     2    21    19    1
     3    19    18    1
     4    18     1    1
     5     1     2   ar
     6     2     3   ar
     7     3     4   ar
     8     4     5   ar
     9     5    10    1
    10    10    11    2
    11    11    12    1
    12    12    13    2
    13    12    14   am
    14    14    15    1
    15     5     6   ar
    16     6     7   ar
    17     7     8   ar
    18     8     9   ar
    19     9    22    1
    20    22    23    1
    21    23    24    1
    22    24    25    1
    23    25    26    1
    24    24    27    1
    25    27    28    1
    26     9     1   ar
    27     8     3   ar
    28    14    16    1
    29    15    17    1
@<TRIPOS>MOLECULE
*****
 28 29 0 0 0
SMALL
GASTEIGER

@<TRIPOS>ATOM
      1 C          60.6192   87.7371    9.4280 C.ar    1  UNL1        0.1203
      2 N          61.0022   89.1621    9.1584 N.ar    1  UNL1       -0.2310
      3 C          61.9978   89.5795   10.1998 C.ar    1  UNL1        0.0983
      4 C          62.7228   90.8715   10.4344 C.ar    1  UNL1        0.0206
      5 C          63.6802   90.9964   11.5823 C.ar    1  UNL1        0.0017
      6 C          63.9126   89.8294   12.4956 C.ar    1  UNL1        0.0016
      7 C          63.1876   88.5374   12.2609 C.ar    1  UNL1        0.0188
      8 C          62.2302   88.4125   11.1130 C.ar    1  UNL1        0.0786
      9 N          61.3782   87.2738   10.6360 N.ar    1  UNL1       -0.3134
     10 C          64.4053   92.2884   11.8171 C.2     1  UNL1        0.0048
     11 C          65.2471   92.8846   10.7281 C.2     1  UNL1        0.0598
     12 C          65.9722   94.1766   10.9628 C.2     1  UNL1        0.2679
     13 O          66.5769   94.4641   12.3051 O.2     1  UNL1       -0.2681
     14 N          66.0925   95.1810    9.8553 N.am    1  UNL1       -0.1934
     15 O          66.8176   96.4730   10.0901 O.3     1  UNL1       -0.2949
     16 H          65.6956   94.9923    8.9743 H       1  UNL1        0.1825
     17 H          67.1444   96.4991   11.0030 H       1  UNL1        0.2414
     18 C          59.6478   86.9190    8.6298 C.3     1  UNL1        0.0639
     19 C          60.1485   85.9856    7.5677 C.3     1  UNL1        0.0079
     20 C          62.0952   84.6526    6.4798 C.3     1  UNL1        0.0000
     21 C          61.5863   85.5580    7.5621 C.3     1  UNL1        0.0005
     22 C          61.2990   85.9111   11.2579 C.3     1  UNL1        0.1245
     23 C          62.4185   84.9318   11.0636 C.3     1  UNL1        0.0969
     24 N          62.7475   83.9447   12.1441 N.3     1  UNL1       -0.2711
     25 C          62.8003   84.3895   13.5756 C.3     1  UNL1        0.0722
     26 C          63.9731   85.1819   14.0720 C.3     1  UNL1        0.0188
     27 C          63.0236   82.5128   11.7929 C.3     1  UNL1        0.0722
     28 C          63.8253   82.1818   10.5691 C.3     1  UNL1        0.0188
@<TRIPOS>BOND
     1    20    21    1
     2    21    19    1
     3    19    18    1
     4    18     1    1
     5     1     2   ar
     6     2     3   ar
     7     3     4   ar
     8     4     5   ar
     9     5    10    1
    10    10    11    2
    11    11    12    1
    12    12    13    2
    13    12    14   am
    14    14    15    1
    15     5     6   ar
    16     6     7   ar
    17     7     8   ar
    18     8     9   ar
    19     9    22    1
    20    22    23    1
    21    23    24    1
    22    24    25    1
    23    25    26    1
    24    24    27    1
    25    27    28    1
    26     9     1   ar
    27     8     3   ar
    28    14    16    1
    29    15    17    1
@<TRIPOS>MOLECULE
*****
 28 29 0 0 0
SMALL
GASTEIGER

@<TRIPOS>ATOM
      1 C          61.0247   87.7487    9.9279 C.ar    1  UNL1        0.1203
      2 N          61.4143   89.1967    9.8883 N.ar    1  UNL1       -0.2310
      3 C          62.3697   89.4507   11.0164 C.ar    1  UNL1        0.0983
      4 C          63.0827   90.6907   11.4679 C.ar    1  UNL1        0.0206
      5 C          63.9966   90.6397   12.6562 C.ar    1  UNL1        0.0017
      6 C          64.1976   89.3487   13.3930 C.ar    1  UNL1        0.0016
      7 C          63.4847   88.1086   12.9415 C.ar    1  UNL1        0.0188
      8 C          62.5707   88.1596   11.7532 C.ar    1  UNL1        0.0786
      9 N          61.7395   87.1078   11.0804 N.ar    1  UNL1       -0.3134
     10 C          64.7097   91.8798   13.1078 C.2     1  UNL1        0.0048
     11 C          65.8426   91.7795   14.0857 C.2     1  UNL1        0.0598
     12 C          66.5557   93.0196   14.5372 C.2     1  UNL1        0.2679
     13 O          66.2499   94.3381   13.8906 O.2     1  UNL1       -0.2681
     14 N          67.5744   92.9412   15.6354 N.am    1  UNL1       -0.1934
     15 O          68.2874   94.1812   16.0869 O.3     1  UNL1       -0.2949
     16 H          67.7751   92.0758   16.0598 H       1  UNL1        0.1825
     17 H          67.9748   94.9402   15.5701 H       1  UNL1        0.2414
     18 C          60.0854   87.0622    8.9811 C.3     1  UNL1        0.0639
     19 C          60.6247   86.3338    7.7859 C.3     1  UNL1        0.0079
     20 C          62.3836   84.7315    6.7422 C.3     1  UNL1        0.0000
     21 C          61.9201   85.5841    7.8861 C.3     1  UNL1        0.0005
     22 C          61.6403   85.6678   11.4886 C.3     1  UNL1        0.1245
     23 C          62.7942   84.7396   11.2504 C.3     1  UNL1        0.0969
     24 N          63.1042   83.6583   12.2427 N.3     1  UNL1       -0.2711
     25 C          63.2980   84.0015   13.6900 C.3     1  UNL1        0.0722
     26 C          64.6247   84.5121   14.1687 C.3     1  UNL1        0.0188
     27 C          63.2205   82.2337   11.7878 C.3     1  UNL1        0.0722
     28 C          62.6727   81.1272   12.6396 C.3     1  UNL1        0.0188
@<TRIPOS>BOND
     1    20    21    1
     2    21    19    1
     3    19    18    1
     4    18     1    1
     5     1     2   ar
     6     2     3   ar
     7     3     4   ar
     8     4     5   ar
     9     5    10    1
    10    10    11    2
    11    11    12    1
    12    12    13    2
    13    12    14   am
    14    14    15    1
    15     5     6   ar
    16     6     7   ar
    17     7     8   ar
    18     8     9   ar
    19     9    22    1
    20    22    23    1
    21    23    24    1
    22    24    25    1
    23    25    26    1
    24    24    27    1
    25    27    28    1
    26     9     1   ar
    27     8     3   ar
    28    14    16    1
    29    15    17    1
@<TRIPOS>MOLECULE
*****
 28 29 0 0 0
SMALL
GASTEIGER

@<TRIPOS>ATOM
      1 C          61.4218   88.3394    9.9328 C.ar    1  UNL1        0.1203
      2 N          61.9434   89.7236   10.1816 N.ar    1  UNL1       -0.2310
      3 C          62.7817   89.6867   11.4250 C.ar    1  UNL1        0.0983
      4 C          63.5477   90.7525   12.1511 C.ar    1  UNL1        0.0206
      5 C          64.3102   90.4112   13.3969 C.ar    1  UNL1        0.0017
      6 C          64.3067   89.0041   13.9166 C.ar    1  UNL1        0.0016
      7 C          63.5407   87.9383   13.1905 C.ar    1  UNL1        0.0188
      8 C          62.7782   88.2796   11.9447 C.ar    1  UNL1        0.0786
      9 N          61.9378   87.4470   11.0225 N.ar    1  UNL1       -0.3134
     10 C          65.0762   91.4770   14.1230 C.2     1  UNL1        0.0048
     11 C          66.5003   91.2341   14.5266 C.2     1  UNL1        0.0598
     12 C          67.2664   92.2999   15.2528 C.2     1  UNL1        0.2679
     13 O          66.7356   92.8608   16.5387 O.2     1  UNL1       -0.2681
     14 N          68.5632   92.8047   14.6930 N.am    1  UNL1       -0.1934
     15 O          69.3292   93.8705   15.4192 O.3     1  UNL1       -0.2949
     16 H          68.9116   92.4366   13.8490 H       1  UNL1        0.1825
     17 H          68.8509   94.1200   16.2254 H       1  UNL1        0.2414
     18 C          60.5393   87.9211    8.7943 C.3     1  UNL1        0.0639
     19 C          59.5929   88.9078    8.1773 C.3     1  UNL1        0.0079
     20 C          59.3547   90.1330    5.8986 C.3     1  UNL1        0.0000
     21 C          59.3231   88.8668    6.7023 C.3     1  UNL1        0.0005
     22 C          61.6618   85.9795   11.1650 C.3     1  UNL1        0.1245
     23 C          62.7985   85.0012   11.1871 C.3     1  UNL1        0.0969
     24 N          62.8711   83.9598   12.2643 N.3     1  UNL1       -0.2711
     25 C          63.0173   84.3734   13.6987 C.3     1  UNL1        0.0722
     26 C          64.3261   84.1799   14.4054 C.3     1  UNL1        0.0188
     27 C          62.7974   82.5048   11.9071 C.3     1  UNL1        0.0722
     28 C          62.2302   81.5200   12.8860 C.3     1  UNL1        0.0188
@<TRIPOS>BOND
     1    20    21    1
     2    21    19    1
     3    19    18    1
     4    18     1    1
     5     1     2   ar
     6     2     3   ar
     7     3     4   ar
     8     4     5   ar
     9     5    10    1
    10    10    11    2
    11    11    12    1
    12    12    13    2
    13    12    14   am
    14    14    15    1
    15     5     6   ar
    16     6     7   ar
    17     7     8   ar
    18     8     9   ar
    19     9    22    1
    20    22    23    1
    21    23    24    1
    22    24    25    1
    23    25    26    1
    24    24    27    1
    25    27    28    1
    26     9     1   ar
    27     8     3   ar
    28    14    16    1
    29    15    17    1
@<TRIPOS>MOLECULE
*****
 28 29 0 0 0
SMALL
GASTEIGER

@<TRIPOS>ATOM
      1 C          62.8672   85.1951   12.5334 C.ar    1  UNL1        0.1203
      2 N          63.6879   85.9479   13.5382 N.ar    1  UNL1       -0.2310
      3 C          63.5841   87.4100   13.2195 C.ar    1  UNL1        0.0983
      4 C          64.1811   88.6235   13.8684 C.ar    1  UNL1        0.0206
      5 C          63.8931   89.9878   13.3155 C.ar    1  UNL1        0.0017
      6 C          63.0082   90.1386   12.1137 C.ar    1  UNL1        0.0016
      7 C          62.4113   88.9251   11.4648 C.ar    1  UNL1        0.0188
      8 C          62.6993   87.5608   12.0177 C.ar    1  UNL1        0.0786
      9 N          62.2562   86.1919   11.5937 N.ar    1  UNL1       -0.3134
     10 C          64.4901   91.2014   13.9643 C.2     1  UNL1        0.0048
     11 C          65.8903   91.6201   13.6268 C.2     1  UNL1        0.0598
     12 C          66.4872   92.8337   14.2757 C.2     1  UNL1        0.2679
     13 O          66.1875   94.1990   13.7317 O.2     1  UNL1       -0.2681
     14 N          67.3839   92.6819   15.4686 N.am    1  UNL1       -0.1934
     15 O          67.9808   93.8954   16.1174 O.3     1  UNL1       -0.2949
     16 H          67.5806   91.7858   15.8256 H       1  UNL1        0.1825
     17 H          67.6883   94.6910   15.6458 H       1  UNL1        0.2414
     18 C          62.6888   83.7067   12.4780 C.3     1  UNL1        0.0639
     19 C          63.4803   82.8219   13.3947 C.3     1  UNL1        0.0079
     20 C          61.6331   81.1536   14.1398 C.3     1  UNL1        0.0000
     21 C          63.0282   81.4154   13.6547 C.3     1  UNL1        0.0005
     22 C          61.3595   85.8754   10.4336 C.3     1  UNL1        0.1245
     23 C          61.6170   86.4999    9.0944 C.3     1  UNL1        0.0969
     24 N          60.6995   86.2114    7.9433 N.3     1  UNL1       -0.2711
     25 C          61.0789   85.1805    6.9219 C.3     1  UNL1        0.0722
     26 C          62.5167   84.7893    6.7494 C.3     1  UNL1        0.0188
     27 C          59.4025   86.9537    7.8138 C.3     1  UNL1        0.0722
     28 C          59.4065   88.4276    7.5351 C.3     1  UNL1        0.0188
@<TRIPOS>BOND
     1    20    21    1
     2    21    19    1
     3    19    18    1
     4    18     1    1
     5     1     2   ar
     6     2     3   ar
     7     3     4   ar
     8     4     5   ar
     9     5    10    1
    10    10    11    2
    11    11    12    1
    12    12    13    2
    13    12    14   am
    14    14    15    1
    15     5     6   ar
    16     6     7   ar
    17     7     8   ar
    18     8     9   ar
    19     9    22    1
    20    22    23    1
    21    23    24    1
    22    24    25    1
    23    25    26    1
    24    24    27    1
    25    27    28    1
    26     9     1   ar
    27     8     3   ar
    28    14    16    1
    29    15    17    1
@<TRIPOS>MOLECULE
*****
 28 29 0 0 0
SMALL
GASTEIGER

@<TRIPOS>ATOM
      1 C          63.1050   88.4129   12.4018 C.ar    1  UNL1        0.1203
      2 N          62.4756   89.4498   11.5194 N.ar    1  UNL1       -0.2310
      3 C          61.6986   88.7394   10.4509 C.ar    1  UNL1        0.0983
      4 C          60.8746   89.2458    9.3045 C.ar    1  UNL1        0.0206
      5 C          60.1998   88.2763    8.3800 C.ar    1  UNL1        0.0017
      6 C          60.3491   86.8004    8.6020 C.ar    1  UNL1        0.0016
      7 C          61.1731   86.2939    9.7484 C.ar    1  UNL1        0.0188
      8 C          61.8479   87.2635   10.6729 C.ar    1  UNL1        0.0786
      9 N          62.7171   87.0617   11.8786 N.ar    1  UNL1       -0.3134
     10 C          59.3756   88.7827    7.2335 C.2     1  UNL1        0.0048
     11 C          59.5346   90.1981    6.7631 C.2     1  UNL1        0.0598
     12 C          58.7105   90.7046    5.6166 C.2     1  UNL1        0.2679
     13 O          59.3791   91.3564    4.4427 O.2     1  UNL1       -0.2681
     14 N          57.2179   90.5591    5.6440 N.am    1  UNL1       -0.1934
     15 O          56.3938   91.0655    4.4976 O.3     1  UNL1       -0.2949
     16 H          56.7790   90.1313    6.4145 H       1  UNL1        0.1825
     17 H          56.9770   91.4553    3.8276 H       1  UNL1        0.2414
     18 C          63.9704   88.6802   13.5975 C.3     1  UNL1        0.0639
     19 C          63.7861   89.9404   14.3900 C.3     1  UNL1        0.0079
     20 C          63.2246   88.5804   16.5313 C.3     1  UNL1        0.0000
     21 C          63.6196   89.8722   15.8792 C.3     1  UNL1        0.0005
     22 C          63.1265   85.7406   12.4592 C.3     1  UNL1        0.1245
     23 C          62.3901   84.4917   12.0747 C.3     1  UNL1        0.0969
     24 N          62.9429   83.1490   12.4507 N.3     1  UNL1       -0.2711
     25 C          62.8037   82.6478   13.8576 C.3     1  UNL1        0.0722
     26 C          61.7771   81.6038   14.1837 C.3     1  UNL1        0.0188
     27 C          63.6351   82.3075   11.4198 C.3     1  UNL1        0.0722
     28 C          64.2670   82.9556   10.2237 C.3     1  UNL1        0.0188
@<TRIPOS>BOND
     1    20    21    1
     2    21    19    1
     3    19    18    1
     4    18     1    1
     5     1     2   ar
     6     2     3   ar
     7     3     4   ar
     8     4     5   ar
     9     5    10    1
    10    10    11    2
    11    11    12    1
    12    12    13    2
    13    12    14   am
    14    14    15    1
    15     5     6   ar
    16     6     7   ar
    17     7     8   ar
    18     8     9   ar
    19     9    22    1
    20    22    23    1
    21    23    24    1
    22    24    25    1
    23    25    26    1
    24    24    27    1
    25    27    28    1
    26     9     1   ar
    27     8     3   ar
    28    14    16    1
    29    15    17    1
@<TRIPOS>MOLECULE
*****
 28 29 0 0 0
SMALL
GASTEIGER

@<TRIPOS>ATOM
      1 C          61.3634   87.3073    9.6192 C.ar    1  UNL1        0.1203
      2 N          61.6529   88.7719    9.4732 N.ar    1  UNL1       -0.2310
      3 C          62.4515   89.2077   10.6658 C.ar    1  UNL1        0.0983
      4 C          63.0192   90.5384   11.0618 C.ar    1  UNL1        0.0206
      5 C          63.7910   90.6739   12.3408 C.ar    1  UNL1        0.0017
      6 C          63.9951   89.4787   13.2239 C.ar    1  UNL1        0.0016
      7 C          63.4274   88.1480   12.8279 C.ar    1  UNL1        0.0188
      8 C          62.6556   88.0125   11.5489 C.ar    1  UNL1        0.0786
      9 N          61.9831   86.8380   10.9020 N.ar    1  UNL1       -0.3134
     10 C          64.3587   92.0047   12.7368 C.2     1  UNL1        0.0048
     11 C          65.6493   92.4781   12.1366 C.2     1  UNL1        0.0598
     12 C          66.2171   93.8089   12.5326 C.2     1  UNL1        0.2679
     13 O          67.2125   93.8967   13.6513 O.2     1  UNL1       -0.2681
     14 N          65.7893   95.0518   11.8101 N.am    1  UNL1       -0.1934
     15 O          66.3571   96.3825   12.2061 O.3     1  UNL1       -0.2949
     16 H          65.1360   94.9942   11.0759 H       1  UNL1        0.1825
     17 H          66.9804   96.2627   12.9396 H       1  UNL1        0.2414
     18 C          60.5900   86.4608    8.6521 C.3     1  UNL1        0.0639
     19 C          59.1771   86.8226    8.3020 C.3     1  UNL1        0.0079
     20 C          59.4679   89.1357    7.1553 C.3     1  UNL1        0.0000
     21 C          58.9022   87.7464    7.1527 C.3     1  UNL1        0.0005
     22 C          61.9382   85.4397   11.4430 C.3     1  UNL1        0.1245
     23 C          62.9176   85.0107   12.4949 C.3     1  UNL1        0.0969
     24 N          63.5622   83.6587   12.4129 N.3     1  UNL1       -0.2711
     25 C          64.1252   83.1740   11.1098 C.3     1  UNL1        0.0722
     26 C          63.6953   81.8489   10.5537 C.3     1  UNL1        0.0188
     27 C          63.6438   82.7914   13.6341 C.3     1  UNL1        0.0722
     28 C          62.3896   82.2566   14.2593 C.3     1  UNL1        0.0188
@<TRIPOS>BOND
     1    20    21    1
     2    21    19    1
     3    19    18    1
     4    18     1    1
     5     1     2   ar
     6     2     3   ar
     7     3     4   ar
     8     4     5   ar
     9     5    10    1
    10    10    11    2
    11    11    12    1
    12    12    13    2
    13    12    14   am
    14    14    15    1
    15     5     6   ar
    16     6     7   ar
    17     7     8   ar
    18     8     9   ar
    19     9    22    1
    20    22    23    1
    21    23    24    1
    22    24    25    1
    23    25    26    1
    24    24    27    1
    25    27    28    1
    26     9     1   ar
    27     8     3   ar
    28    14    16    1
    29    15    17    1
@<TRIPOS>MOLECULE
*****
 28 29 0 0 0
SMALL
GASTEIGER

@<TRIPOS>ATOM
      1 C          64.8675   91.2219   14.0180 C.ar    1  UNL1        0.1203
      2 N          64.2471   91.8657   12.8135 N.ar    1  UNL1       -0.2310
      3 C          63.4688   90.8165   12.0764 C.ar    1  UNL1        0.0983
      4 C          62.6512   90.8709   10.8200 C.ar    1  UNL1        0.0206
      5 C          61.9729   89.6330   10.3125 C.ar    1  UNL1        0.0017
      6 C          62.1122   88.3408   11.0614 C.ar    1  UNL1        0.0016
      7 C          62.9298   88.2865   12.3178 C.ar    1  UNL1        0.0188
      8 C          63.6081   89.5243   12.8253 C.ar    1  UNL1        0.0786
      9 N          64.4725   89.7749   14.0252 N.ar    1  UNL1       -0.3134
     10 C          61.1552   89.6874    9.0561 C.2     1  UNL1        0.0048
     11 C          60.1564   88.6071    8.7640 C.2     1  UNL1        0.0598
     12 C          59.3388   88.6614    7.5075 C.2     1  UNL1        0.2679
     13 O          58.4989   87.4846    7.1078 O.2     1  UNL1       -0.2681
     14 N          59.3609   89.8925    6.6509 N.am    1  UNL1       -0.1934
     15 O          58.5433   89.9467    5.3945 O.3     1  UNL1       -0.2949
     16 H          59.9121   90.6649    6.9132 H       1  UNL1        0.1825
     17 H          58.0636   89.1108    5.2846 H       1  UNL1        0.2414
     18 C          65.7312   91.9052   15.0364 C.3     1  UNL1        0.0639
     19 C          66.5094   93.1307   14.6588 C.3     1  UNL1        0.0079
     20 C          68.5634   92.4023   16.0734 C.3     1  UNL1        0.0000
     21 C          67.7653   93.4799   15.4011 C.3     1  UNL1        0.0005
     22 C          64.8719   88.7571   15.0521 C.3     1  UNL1        0.1245
     23 C          63.8210   88.0498   15.8554 C.3     1  UNL1        0.0969
     24 N          63.6901   86.5579   15.7710 N.3     1  UNL1       -0.2711
     25 C          62.9738   85.8055   16.8531 C.3     1  UNL1        0.0722
     26 C          62.5937   86.5024   18.1258 C.3     1  UNL1        0.0188
     27 C          64.2754   85.8184   14.6046 C.3     1  UNL1        0.0722
     28 C          64.4719   84.3332   14.6803 C.3     1  UNL1        0.0188
@<TRIPOS>BOND
     1    20    21    1
     2    21    19    1
     3    19    18    1
     4    18     1    1
     5     1     2   ar
     6     2     3   ar
     7     3     4   ar
     8     4     5   ar
     9     5    10    1
    10    10    11    2
    11    11    12    1
    12    12    13    2
    13    12    14   am
    14    14    15    1
    15     5     6   ar
    16     6     7   ar
    17     7     8   ar
    18     8     9   ar
    19     9    22    1
    20    22    23    1
    21    23    24    1
    22    24    25    1
    23    25    26    1
    24    24    27    1
    25    27    28    1
    26     9     1   ar
    27     8     3   ar
    28    14    16    1
    29    15    17    1
