@<TRIPOS>MOLECULE
*****
 37 38 0 0 0
SMALL
GASTEIGER

@<TRIPOS>ATOM
      1 P          59.7273   87.5925    8.1615 P.3     1  UNL1        0.3697
      2 O          59.6505   86.1742    7.6795 O.2     1  UNL1       -0.2553
      3 O          58.4709   87.9163    7.4088 O.3     1  UNL1       -0.3218
      4 H          58.1533   87.1214    6.9527 H       1  UNL1        0.2198
      5 C          59.8041   89.0109    8.6435 C.3     1  UNL1        0.2579
      6 O          60.9740   89.4608    9.4674 O.3     1  UNL1       -0.3426
      7 C          60.7598   89.9545   10.8675 C.3     1  UNL1        0.1387
      8 C          59.4693   90.6234   11.2378 C.3     1  UNL1        0.0342
      9 C          61.8363   89.7793   11.8975 C.3     1  UNL1        0.1384
     10 N          63.0368   90.6786   11.8880 N.ar    1  UNL1       -0.2918
     11 C          63.6817   91.2755   10.6724 C.ar    1  UNL1        0.1798
     12 N          64.8466   92.1047   11.1257 N.ar    1  UNL1       -0.2195
     13 C          64.9217   92.0202   12.6214 C.ar    1  UNL1        0.1481
     14 C          65.8640   92.6320   13.6152 C.ar    1  UNL1        0.1480
     15 N          66.9826   93.5133   13.1441 N.pl3   1  UNL1       -0.3413
     16 N          65.6878   92.3624   15.0802 N.ar    1  UNL1       -0.2078
     17 C          64.5692   91.4810   15.5514 C.ar    1  UNL1        0.2015
     18 N          63.6269   90.8692   14.5576 N.ar    1  UNL1       -0.2048
     19 C          63.8031   91.1388   13.0926 C.ar    1  UNL1        0.1674
     20 H          67.0982   93.6903   12.1825 H       1  UNL1        0.1438
     21 H          67.6011   93.9149   13.7964 H       1  UNL1        0.1438
     22 O          60.9837   87.2687    8.9143 O.3     1  UNL1       -0.2926
     23 C          61.0882   85.9842    9.6818 C.3     1  UNL1        0.1514
     24 C          61.8682   85.9369   10.9622 C.3     1  UNL1        0.0326
     25 C          62.7177   84.7420   11.2792 C.3     1  UNL1        0.0026
     26 C          63.4546   84.0332   10.1816 C.3     1  UNL1        0.0001
     27 C          64.1257   82.7200   10.4552 C.3     1  UNL1        0.0000
     28 C          64.0749   82.1238   11.8306 C.3     1  UNL1        0.0000
     29 C          63.1275   80.9988   12.1260 C.3     1  UNL1        0.0000
     30 C          62.6947   80.7337   13.5375 C.3     1  UNL1        0.0000
     31 C          61.6380   81.5891   14.1712 C.3     1  UNL1        0.0000
     32 C          61.9892   82.9500   14.6952 C.3     1  UNL1        0.0000
     33 C          63.3805   83.2308   15.1803 C.3     1  UNL1        0.0000
     34 C          64.0356   84.5420   14.8615 C.3     1  UNL1        0.0000
     35 C          63.8023   85.7314   15.7451 C.3     1  UNL1        0.0000
     36 C          62.8043   86.5832   17.9875 C.3     1  UNL1        0.0000
     37 C          62.7192   85.6945   16.7821 C.3     1  UNL1        0.0000
@<TRIPOS>BOND
     1    36    37    1
     2    37    35    1
     3    35    34    1
     4    34    33    1
     5    33    32    1
     6    32    31    1
     7    31    30    1
     8    30    29    1
     9    29    28    1
    10    28    27    1
    11    27    26    1
    12    26    25    1
    13    25    24    1
    14    24    23    1
    15    23    22    1
    16    22     1    1
    17     1     2    2
    18     1     3    1
    19     1     5    1
    20     5     6    1
    21     6     7    1
    22     7     8    1
    23     7     9    1
    24     9    10    1
    25    10    11   ar
    26    11    12   ar
    27    12    13   ar
    28    13    14   ar
    29    14    15    1
    30    14    16   ar
    31    16    17   ar
    32    17    18   ar
    33    18    19   ar
    34    19    10   ar
    35    19    13   ar
    36     3     4    1
    37    15    20    1
    38    15    21    1
@<TRIPOS>MOLECULE
*****
 37 38 0 0 0
SMALL
GASTEIGER

@<TRIPOS>ATOM
      1 P          63.5662   89.1040   14.6915 P.3     1  UNL1        0.3697
      2 O          63.4683   88.8047   16.1581 O.2     1  UNL1       -0.2553
      3 O          62.8798   90.4190   14.9140 O.3     1  UNL1       -0.3218
      4 H          62.6721   90.5200   15.8561 H       1  UNL1        0.2198
      5 C          63.6642   89.4032   13.2249 C.3     1  UNL1        0.2579
      6 O          63.0269   90.6416   12.6679 O.3     1  UNL1       -0.3426
      7 C          63.3291   91.0740   11.2638 C.3     1  UNL1        0.1387
      8 C          62.7406   90.3248   10.1052 C.3     1  UNL1        0.0342
      9 C          64.2198   92.2558   11.0182 C.3     1  UNL1        0.1384
     10 N          65.6244   92.2585   11.5447 N.ar    1  UNL1       -0.2918
     11 C          66.8757   92.2159   10.7186 C.ar    1  UNL1        0.1798
     12 N          68.0488   92.2354   11.6531 N.ar    1  UNL1       -0.2195
     13 C          67.5226   92.2900   13.0567 C.ar    1  UNL1        0.1481
     14 C          68.2143   92.3286   14.3871 C.ar    1  UNL1        0.1480
     15 N          69.7127   92.3143   14.4541 N.pl3   1  UNL1       -0.3413
     16 N          67.4075   92.3815   15.6505 N.ar    1  UNL1       -0.2078
     17 C          65.9091   92.3957   15.5835 C.ar    1  UNL1        0.2015
     18 N          65.2174   92.3571   14.2531 N.ar    1  UNL1       -0.2048
     19 C          66.0242   92.3043   12.9897 C.ar    1  UNL1        0.1674
     20 H          70.2422   92.2797   13.6248 H       1  UNL1        0.1438
     21 H          70.1667   92.3397   15.3273 H       1  UNL1        0.1438
     22 O          64.2526   87.7889   14.4690 O.3     1  UNL1       -0.2926
     23 C          64.0234   86.6527   15.4210 C.3     1  UNL1        0.1514
     24 C          64.1602   85.2366   14.9456 C.3     1  UNL1        0.0326
     25 C          62.9370   84.4400   14.6003 C.3     1  UNL1        0.0026
     26 C          62.8961   82.9677   14.8843 C.3     1  UNL1        0.0001
     27 C          62.0674   82.0606   14.0237 C.3     1  UNL1        0.0000
     28 C          62.7353   81.0586   13.1294 C.3     1  UNL1        0.0000
     29 C          62.9939   81.3928   11.6901 C.3     1  UNL1        0.0000
     30 C          64.1671   82.2503   11.3183 C.3     1  UNL1        0.0000
     31 C          64.1469   83.0362   10.0409 C.3     1  UNL1        0.0000
     32 C          63.4009   84.3356    9.9714 C.3     1  UNL1        0.0000
     33 C          62.3995   84.6832   11.0327 C.3     1  UNL1        0.0000
     34 C          61.9460   86.1032   11.1997 C.3     1  UNL1        0.0000
     35 C          61.5841   86.9215    9.9959 C.3     1  UNL1        0.0000
     36 C          60.8229   85.8984    7.7323 C.3     1  UNL1        0.0000
     37 C          60.4874   86.4644    9.0803 C.3     1  UNL1        0.0000
@<TRIPOS>BOND
     1    36    37    1
     2    37    35    1
     3    35    34    1
     4    34    33    1
     5    33    32    1
     6    32    31    1
     7    31    30    1
     8    30    29    1
     9    29    28    1
    10    28    27    1
    11    27    26    1
    12    26    25    1
    13    25    24    1
    14    24    23    1
    15    23    22    1
    16    22     1    1
    17     1     2    2
    18     1     3    1
    19     1     5    1
    20     5     6    1
    21     6     7    1
    22     7     8    1
    23     7     9    1
    24     9    10    1
    25    10    11   ar
    26    11    12   ar
    27    12    13   ar
    28    13    14   ar
    29    14    15    1
    30    14    16   ar
    31    16    17   ar
    32    17    18   ar
    33    18    19   ar
    34    19    10   ar
    35    19    13   ar
    36     3     4    1
    37    15    20    1
    38    15    21    1
@<TRIPOS>MOLECULE
*****
 37 38 0 0 0
SMALL
GASTEIGER

@<TRIPOS>ATOM
      1 P          63.6089   90.0186   15.0847 P.3     1  UNL1        0.3697
      2 O          62.3458   89.6725   15.8160 O.2     1  UNL1       -0.2553
      3 O          63.7030   91.3023   15.8549 O.3     1  UNL1       -0.3218
      4 H          62.9533   91.3680   16.4668 H       1  UNL1        0.2198
      5 C          64.8720   90.3647   14.3534 C.3     1  UNL1        0.2579
      6 O          65.0689   91.7489   13.8102 O.3     1  UNL1       -0.3426
      7 C          66.3502   92.4828   14.0737 C.3     1  UNL1        0.1387
      8 C          67.5470   91.7407   14.5905 C.3     1  UNL1        0.0342
      9 C          66.4348   93.9589   13.8205 C.3     1  UNL1        0.1384
     10 N          66.4972   94.4762   12.4139 N.ar    1  UNL1       -0.2918
     11 C          65.9620   95.7928   11.9341 C.ar    1  UNL1        0.1798
     12 N          66.2397   95.8979   10.4638 N.ar    1  UNL1       -0.2195
     13 C          66.9465   94.6464   10.0349 C.ar    1  UNL1        0.1481
     14 C          67.4657   94.1933    8.7026 C.ar    1  UNL1        0.1480
     15 N          67.3066   95.0720    7.4973 N.pl3   1  UNL1       -0.3413
     16 N          68.1441   92.8615    8.5755 N.ar    1  UNL1       -0.2078
     17 C          68.3032   91.9828    9.7807 C.ar    1  UNL1        0.2015
     18 N          67.7840   92.4359   11.1130 N.ar    1  UNL1       -0.2048
     19 C          67.1056   93.7677   11.2401 C.ar    1  UNL1        0.1674
     20 H          66.8614   95.9461    7.5808 H       1  UNL1        0.1438
     21 H          67.6474   94.7746    6.6229 H       1  UNL1        0.1438
     22 O          63.5147   88.7348   14.3146 O.3     1  UNL1       -0.2926
     23 C          64.2844   87.5299   14.7681 C.3     1  UNL1        0.1514
     24 C          64.1205   86.2220   14.0522 C.3     1  UNL1        0.0326
     25 C          64.9720   85.0471   14.4322 C.3     1  UNL1        0.0026
     26 C          64.3400   83.8246   15.0287 C.3     1  UNL1        0.0001
     27 C          62.8471   83.6785   15.0337 C.3     1  UNL1        0.0000
     28 C          62.2037   82.5274   14.3189 C.3     1  UNL1        0.0000
     29 C          63.0138   81.3142   13.9695 C.3     1  UNL1        0.0000
     30 C          62.8252   80.6434   12.6412 C.3     1  UNL1        0.0000
     31 C          62.8620   81.4540   11.3796 C.3     1  UNL1        0.0000
     32 C          63.9825   82.4227   11.1430 C.3     1  UNL1        0.0000
     33 C          63.6791   83.8505   10.7974 C.3     1  UNL1        0.0000
     34 C          62.4932   84.5347   11.4100 C.3     1  UNL1        0.0000
     35 C          61.8983   85.7416   10.7471 C.3     1  UNL1        0.0000
     36 C          60.8210   86.3685    8.4676 C.3     1  UNL1        0.0000
     37 C          62.0094   85.9122    9.2610 C.3     1  UNL1        0.0000
@<TRIPOS>BOND
     1    36    37    1
     2    37    35    1
     3    35    34    1
     4    34    33    1
     5    33    32    1
     6    32    31    1
     7    31    30    1
     8    30    29    1
     9    29    28    1
    10    28    27    1
    11    27    26    1
    12    26    25    1
    13    25    24    1
    14    24    23    1
    15    23    22    1
    16    22     1    1
    17     1     2    2
    18     1     3    1
    19     1     5    1
    20     5     6    1
    21     6     7    1
    22     7     8    1
    23     7     9    1
    24     9    10    1
    25    10    11   ar
    26    11    12   ar
    27    12    13   ar
    28    13    14   ar
    29    14    15    1
    30    14    16   ar
    31    16    17   ar
    32    17    18   ar
    33    18    19   ar
    34    19    10   ar
    35    19    13   ar
    36     3     4    1
    37    15    20    1
    38    15    21    1
@<TRIPOS>MOLECULE
*****
 37 38 0 0 0
SMALL
GASTEIGER

@<TRIPOS>ATOM
      1 P          59.4910   88.1445    7.9361 P.3     1  UNL1        0.3697
      2 O          59.0948   89.0542    6.8112 O.2     1  UNL1       -0.2553
      3 O          58.4347   87.1657    7.5165 O.3     1  UNL1       -0.3218
      4 H          57.9654   87.5093    6.7402 H       1  UNL1        0.2198
      5 C          59.8871   87.2347    9.0610 C.3     1  UNL1        0.2579
      6 O          60.5602   85.9270    8.7665 O.3     1  UNL1       -0.3426
      7 C          62.0132   85.7418    9.0896 C.3     1  UNL1        0.1387
      8 C          63.0156   85.6006    7.9827 C.3     1  UNL1        0.0342
      9 C          62.4639   85.6977   10.5197 C.3     1  UNL1        0.1384
     10 N          62.8830   84.3951   11.1342 N.ar    1  UNL1       -0.2918
     11 C          63.4427   83.2133   10.3994 C.ar    1  UNL1        0.1798
     12 N          63.7215   82.1334   11.4025 N.ar    1  UNL1       -0.2195
     13 C          63.3341   82.6479   12.7573 C.ar    1  UNL1        0.1481
     14 C          63.3863   82.0241   14.1204 C.ar    1  UNL1        0.1480
     15 N          63.9046   80.6263   14.2862 N.pl3   1  UNL1       -0.3413
     16 N          62.9202   82.7982   15.3177 N.ar    1  UNL1       -0.2078
     17 C          62.4019   84.1960   15.1518 C.ar    1  UNL1        0.2015
     18 N          62.3498   84.8197   13.7887 N.ar    1  UNL1       -0.2048
     19 C          62.8158   84.0457   12.5914 C.ar    1  UNL1        0.1674
     20 H          64.2105   80.1182   13.5003 H       1  UNL1        0.1438
     21 H          63.9388   80.2169   15.1809 H       1  UNL1        0.1438
     22 O          60.5473   89.1233    8.3557 O.3     1  UNL1       -0.2926
     23 C          60.7045   89.4824    9.8035 C.3     1  UNL1        0.1514
     24 C          62.0726   89.5524   10.4147 C.3     1  UNL1        0.0326
     25 C          62.4726   90.7512   11.2226 C.3     1  UNL1        0.0026
     26 C          63.6237   90.6602   12.1801 C.3     1  UNL1        0.0001
     27 C          63.7452   89.4792   13.0968 C.3     1  UNL1        0.0000
     28 C          64.3912   89.6367   14.4413 C.3     1  UNL1        0.0000
     29 C          64.9564   90.9644   14.8510 C.3     1  UNL1        0.0000
     30 C          66.4000   91.2776   14.5907 C.3     1  UNL1        0.0000
     31 C          66.7787   92.5612   13.9133 C.3     1  UNL1        0.0000
     32 C          66.7472   92.6572   12.4167 C.3     1  UNL1        0.0000
     33 C          65.8741   93.6778   11.7489 C.3     1  UNL1        0.0000
     34 C          66.4762   94.6809   10.8101 C.3     1  UNL1        0.0000
     35 C          66.8689   94.2682    9.4226 C.3     1  UNL1        0.0000
     36 C          68.5822   92.3283    9.1958 C.3     1  UNL1        0.0000
     37 C          68.2651   93.7936    9.1481 C.3     1  UNL1        0.0000
@<TRIPOS>BOND
     1    36    37    1
     2    37    35    1
     3    35    34    1
     4    34    33    1
     5    33    32    1
     6    32    31    1
     7    31    30    1
     8    30    29    1
     9    29    28    1
    10    28    27    1
    11    27    26    1
    12    26    25    1
    13    25    24    1
    14    24    23    1
    15    23    22    1
    16    22     1    1
    17     1     2    2
    18     1     3    1
    19     1     5    1
    20     5     6    1
    21     6     7    1
    22     7     8    1
    23     7     9    1
    24     9    10    1
    25    10    11   ar
    26    11    12   ar
    27    12    13   ar
    28    13    14   ar
    29    14    15    1
    30    14    16   ar
    31    16    17   ar
    32    17    18   ar
    33    18    19   ar
    34    19    10   ar
    35    19    13   ar
    36     3     4    1
    37    15    20    1
    38    15    21    1
@<TRIPOS>MOLECULE
*****
 37 38 0 0 0
SMALL
GASTEIGER

@<TRIPOS>ATOM
      1 P          60.3529   88.2282   10.8858 P.3     1  UNL1        0.3697
      2 O          60.5020   86.8191   11.3778 O.2     1  UNL1       -0.2553
      3 O          59.7610   88.6263   12.2053 O.3     1  UNL1       -0.3218
      4 H          59.7244   87.8530   12.7897 H       1  UNL1        0.2198
      5 C          60.2037   89.6373   10.3937 C.3     1  UNL1        0.2579
      6 O          60.9913   90.7423   11.0330 O.3     1  UNL1       -0.3426
      7 C          62.4899   90.6809   11.0527 C.3     1  UNL1        0.1387
      8 C          63.2860   91.4674   10.0538 C.3     1  UNL1        0.0342
      9 C          63.1925   89.8331   12.0714 C.3     1  UNL1        0.1384
     10 N          63.7923   90.4683   13.2908 N.ar    1  UNL1       -0.2918
     11 C          63.3474   90.2521   14.7069 C.ar    1  UNL1        0.1798
     12 N          64.2225   91.0814   15.5993 N.ar    1  UNL1       -0.2195
     13 C          65.2082   91.8101   14.7348 C.ar    1  UNL1        0.1481
     14 C          66.3135   92.7697   15.0625 C.ar    1  UNL1        0.1480
     15 N          66.5793   93.1487   16.4893 N.pl3   1  UNL1       -0.3413
     16 N          67.1529   93.3504   13.9634 N.ar    1  UNL1       -0.2078
     17 C          66.8871   92.9715   12.5366 C.ar    1  UNL1        0.2015
     18 N          65.7818   92.0119   12.2089 N.ar    1  UNL1       -0.2048
     19 C          64.9423   91.4312   13.3081 C.ar    1  UNL1        0.1674
     20 H          66.0284   92.7675   17.2107 H       1  UNL1        0.1438
     21 H          67.3048   93.7785   16.7044 H       1  UNL1        0.1438
     22 O          60.9447   87.8301    9.5662 O.3     1  UNL1       -0.2926
     23 C          62.3056   87.2014    9.5136 C.3     1  UNL1        0.1514
     24 C          62.4582   85.7803    9.0586 C.3     1  UNL1        0.0326
     25 C          62.8789   84.7214   10.0342 C.3     1  UNL1        0.0026
     26 C          63.9764   83.7641    9.6749 C.3     1  UNL1        0.0001
     27 C          64.2786   82.5993   10.5704 C.3     1  UNL1        0.0000
     28 C          63.2474   81.5315   10.7858 C.3     1  UNL1        0.0000
     29 C          62.6157   81.3602   12.1356 C.3     1  UNL1        0.0000
     30 C          63.4753   81.2955   13.3631 C.3     1  UNL1        0.0000
     31 C          63.4557   82.4226   14.3527 C.3     1  UNL1        0.0000
     32 C          62.7627   83.7084   14.0115 C.3     1  UNL1        0.0000
     33 C          63.5641   84.9007   13.5800 C.3     1  UNL1        0.0000
     34 C          64.4408   85.6123   14.5675 C.3     1  UNL1        0.0000
     35 C          64.0899   85.6021   16.0258 C.3     1  UNL1        0.0000
     36 C          62.6476   86.5304   17.9772 C.3     1  UNL1        0.0000
     37 C          63.2045   86.6726   16.5917 C.3     1  UNL1        0.0000
@<TRIPOS>BOND
     1    36    37    1
     2    37    35    1
     3    35    34    1
     4    34    33    1
     5    33    32    1
     6    32    31    1
     7    31    30    1
     8    30    29    1
     9    29    28    1
    10    28    27    1
    11    27    26    1
    12    26    25    1
    13    25    24    1
    14    24    23    1
    15    23    22    1
    16    22     1    1
    17     1     2    2
    18     1     3    1
    19     1     5    1
    20     5     6    1
    21     6     7    1
    22     7     8    1
    23     7     9    1
    24     9    10    1
    25    10    11   ar
    26    11    12   ar
    27    12    13   ar
    28    13    14   ar
    29    14    15    1
    30    14    16   ar
    31    16    17   ar
    32    17    18   ar
    33    18    19   ar
    34    19    10   ar
    35    19    13   ar
    36     3     4    1
    37    15    20    1
    38    15    21    1
@<TRIPOS>MOLECULE
*****
 37 38 0 0 0
SMALL
GASTEIGER

@<TRIPOS>ATOM
      1 P          64.2804   85.2196   14.5884 P.3     1  UNL1        0.3697
      2 O          64.6513   83.8970   15.1911 O.2     1  UNL1       -0.2553
      3 O          65.6237   85.7689   14.9671 O.3     1  UNL1       -0.3218
      4 H          66.1395   85.0810   15.4162 H       1  UNL1        0.2198
      5 C          63.9094   86.5421   13.9857 C.3     1  UNL1        0.2579
      6 O          64.4882   87.8089   14.5425 O.3     1  UNL1       -0.3426
      7 C          63.5793   88.8976   15.0309 C.3     1  UNL1        0.1387
      8 C          63.3684   89.0945   16.5029 C.3     1  UNL1        0.0342
      9 C          62.8813   89.7895   14.0473 C.3     1  UNL1        0.1384
     10 N          63.6801   90.6977   13.1601 N.ar    1  UNL1       -0.2918
     11 C          63.5430   90.8203   11.6715 C.ar    1  UNL1        0.1798
     12 N          64.5344   91.8412   11.1972 N.ar    1  UNL1       -0.2195
     13 C          65.2843   92.3495   12.3928 C.ar    1  UNL1        0.1481
     14 C          66.3797   93.3645   12.5335 C.ar    1  UNL1        0.1480
     15 N          66.9077   94.0712   11.3203 N.pl3   1  UNL1       -0.3413
     16 N          66.9470   93.6728   13.8874 N.ar    1  UNL1       -0.2078
     17 C          66.4190   92.9661   15.1005 C.ar    1  UNL1        0.2015
     18 N          65.3236   91.9511   14.9598 N.ar    1  UNL1       -0.2048
     19 C          64.7563   91.6428   13.6060 C.ar    1  UNL1        0.1674
     20 H          66.5353   93.8688   10.4317 H       1  UNL1        0.1438
     21 H          67.6266   94.7374   11.4127 H       1  UNL1        0.1438
     22 O          62.9370   84.6702   14.2096 O.3     1  UNL1       -0.2926
     23 C          62.3649   83.5040   14.9598 C.3     1  UNL1        0.1514
     24 C          62.0090   82.2436   14.2286 C.3     1  UNL1        0.0326
     25 C          62.9765   81.6448   13.2513 C.3     1  UNL1        0.0026
     26 C          62.8230   81.9136   11.7836 C.3     1  UNL1        0.0001
     27 C          63.9091   82.6265   11.0339 C.3     1  UNL1        0.0000
     28 C          63.5589   83.6989   10.0454 C.3     1  UNL1        0.0000
     29 C          63.1812   85.0685   10.5270 C.3     1  UNL1        0.0000
     30 C          61.8041   85.3210   11.0653 C.3     1  UNL1        0.0000
     31 C          61.2121   86.6974   10.9951 C.3     1  UNL1        0.0000
     32 C          61.4318   87.5473    9.7788 C.3     1  UNL1        0.0000
     33 C          60.2733   87.9086    8.8971 C.3     1  UNL1        0.0000
     34 C          59.9849   87.0982    7.6683 C.3     1  UNL1        0.0000
     35 C          60.3591   85.6464    7.6222 C.3     1  UNL1        0.0000
     36 C          61.8208   84.3323    5.9233 C.3     1  UNL1        0.0000
     37 C          61.7099   85.2357    7.1156 C.3     1  UNL1        0.0000
@<TRIPOS>BOND
     1    36    37    1
     2    37    35    1
     3    35    34    1
     4    34    33    1
     5    33    32    1
     6    32    31    1
     7    31    30    1
     8    30    29    1
     9    29    28    1
    10    28    27    1
    11    27    26    1
    12    26    25    1
    13    25    24    1
    14    24    23    1
    15    23    22    1
    16    22     1    1
    17     1     2    2
    18     1     3    1
    19     1     5    1
    20     5     6    1
    21     6     7    1
    22     7     8    1
    23     7     9    1
    24     9    10    1
    25    10    11   ar
    26    11    12   ar
    27    12    13   ar
    28    13    14   ar
    29    14    15    1
    30    14    16   ar
    31    16    17   ar
    32    17    18   ar
    33    18    19   ar
    34    19    10   ar
    35    19    13   ar
    36     3     4    1
    37    15    20    1
    38    15    21    1
@<TRIPOS>MOLECULE
*****
 37 38 0 0 0
SMALL
GASTEIGER

@<TRIPOS>ATOM
      1 P          60.3686   89.4916   10.9088 P.3     1  UNL1        0.3697
      2 O          59.1516   89.5524   11.7835 O.2     1  UNL1       -0.2553
      3 O          59.9429   90.7588   10.2284 O.3     1  UNL1       -0.3218
      4 H          59.1091   91.0689   10.6150 H       1  UNL1        0.2198
      5 C          61.5857   89.4309   10.0341 C.3     1  UNL1        0.2579
      6 O          62.4957   90.6189    9.9315 O.3     1  UNL1       -0.3426
      7 C          63.3829   90.9859   11.0840 C.3     1  UNL1        0.1387
      8 C          63.4746   90.0819   12.2775 C.3     1  UNL1        0.0342
      9 C          64.1785   92.2569   11.0429 C.3     1  UNL1        0.1384
     10 N          65.5949   92.2714   11.5365 N.ar    1  UNL1       -0.2918
     11 C          66.8269   92.2562   10.6810 C.ar    1  UNL1        0.1798
     12 N          68.0213   92.2791   11.5881 N.ar    1  UNL1       -0.2195
     13 C          67.5275   92.3084   13.0042 C.ar    1  UNL1        0.1481
     14 C          68.2497   92.3387   14.3185 C.ar    1  UNL1        0.1480
     15 N          69.7493   92.3435   14.3504 N.pl3   1  UNL1       -0.3413
     16 N          67.4721   92.3644   15.6010 N.ar    1  UNL1       -0.2078
     17 C          65.9725   92.3597   15.5691 C.ar    1  UNL1        0.2015
     18 N          65.2503   92.3293   14.2548 N.ar    1  UNL1       -0.2048
     19 C          66.0279   92.3036   12.9723 C.ar    1  UNL1        0.1674
     20 H          70.2596   92.3266   13.5087 H       1  UNL1        0.1438
     21 H          70.2233   92.3634   15.2131 H       1  UNL1        0.1438
     22 O          60.7944   88.2245   11.5893 O.3     1  UNL1       -0.2926
     23 C          61.6673   87.2418   10.8666 C.3     1  UNL1        0.1514
     24 C          61.5635   85.7776   11.1753 C.3     1  UNL1        0.0326
     25 C          62.7726   85.0217   11.6407 C.3     1  UNL1        0.0026
     26 C          63.2866   83.8624   10.8395 C.3     1  UNL1        0.0001
     27 C          64.1461   82.8213   11.4931 C.3     1  UNL1        0.0000
     28 C          63.5405   81.5268   11.9486 C.3     1  UNL1        0.0000
     29 C          62.2560   81.5312   12.7233 C.3     1  UNL1        0.0000
     30 C          62.2732   81.7784   14.2027 C.3     1  UNL1        0.0000
     31 C          62.3006   83.1831   14.7281 C.3     1  UNL1        0.0000
     32 C          63.6025   83.8055   15.1377 C.3     1  UNL1        0.0000
     33 C          63.6948   85.2894   15.3358 C.3     1  UNL1        0.0000
     34 C          63.7022   85.8620   16.7222 C.3     1  UNL1        0.0000
     35 C          62.6644   86.8677   17.1238 C.3     1  UNL1        0.0000
     36 C          63.2342   89.2098   16.1543 C.3     1  UNL1        0.0000
     37 C          63.0513   88.3016   17.3341 C.3     1  UNL1        0.0000
@<TRIPOS>BOND
     1    36    37    1
     2    37    35    1
     3    35    34    1
     4    34    33    1
     5    33    32    1
     6    32    31    1
     7    31    30    1
     8    30    29    1
     9    29    28    1
    10    28    27    1
    11    27    26    1
    12    26    25    1
    13    25    24    1
    14    24    23    1
    15    23    22    1
    16    22     1    1
    17     1     2    2
    18     1     3    1
    19     1     5    1
    20     5     6    1
    21     6     7    1
    22     7     8    1
    23     7     9    1
    24     9    10    1
    25    10    11   ar
    26    11    12   ar
    27    12    13   ar
    28    13    14   ar
    29    14    15    1
    30    14    16   ar
    31    16    17   ar
    32    17    18   ar
    33    18    19   ar
    34    19    10   ar
    35    19    13   ar
    36     3     4    1
    37    15    20    1
    38    15    21    1
@<TRIPOS>MOLECULE
*****
 37 38 0 0 0
SMALL
GASTEIGER

@<TRIPOS>ATOM
      1 P          59.9183   89.8206   11.4632 P.3     1  UNL1        0.3697
      2 O          59.0352   91.0331   11.4549 O.2     1  UNL1       -0.2553
      3 O          59.0565   89.2001   12.5226 O.3     1  UNL1       -0.3218
      4 H          58.3323   89.8056   12.7459 H       1  UNL1        0.2198
      5 C          60.8015   88.6082   11.4715 C.3     1  UNL1        0.2579
      6 O          60.3160   87.3226   10.8704 O.3     1  UNL1       -0.3426
      7 C          61.2659   86.4432   10.1125 C.3     1  UNL1        0.1387
      8 C          60.8640   85.8749    8.7838 C.3     1  UNL1        0.0342
      9 C          62.6178   86.1321   10.6834 C.3     1  UNL1        0.1384
     10 N          62.9189   84.7524   11.1893 N.ar    1  UNL1       -0.2918
     11 C          63.3914   83.5937   10.3622 C.ar    1  UNL1        0.1798
     12 N          63.5648   82.4145   11.2729 N.ar    1  UNL1       -0.2195
     13 C          63.1995   82.8444   12.6628 C.ar    1  UNL1        0.1481
     14 C          63.1787   82.1068   13.9687 C.ar    1  UNL1        0.1480
     15 N          63.5780   80.6618   14.0204 N.pl3   1  UNL1       -0.3413
     16 N          62.7588   82.8142   15.2229 N.ar    1  UNL1       -0.2078
     17 C          62.3595   84.2591   15.1712 C.ar    1  UNL1        0.2015
     18 N          62.3803   84.9967   13.8653 N.ar    1  UNL1       -0.2048
     19 C          62.8002   84.2893   12.6111 C.ar    1  UNL1        0.1674
     20 H          63.8536   80.1975   13.1971 H       1  UNL1        0.1438
     21 H          63.5644   80.1777   14.8775 H       1  UNL1        0.1438
     22 O          60.7801   90.4411   10.4038 O.3     1  UNL1       -0.2926
     23 C          62.2444   90.1209   10.3454 C.3     1  UNL1        0.1514
     24 C          63.2564   91.1717   10.6944 C.3     1  UNL1        0.0326
     25 C          63.8680   91.1985   12.0638 C.3     1  UNL1        0.0026
     26 C          63.8435   89.9673   12.9203 C.3     1  UNL1        0.0001
     27 C          64.1376   90.0685   14.3877 C.3     1  UNL1        0.0000
     28 C          64.9675   91.2037   14.9098 C.3     1  UNL1        0.0000
     29 C          66.4424   91.2413   14.6385 C.3     1  UNL1        0.0000
     30 C          67.1143   92.5453   14.3252 C.3     1  UNL1        0.0000
     31 C          66.3536   93.6316   13.6244 C.3     1  UNL1        0.0000
     32 C          66.4617   93.7828   12.1360 C.3     1  UNL1        0.0000
     33 C          67.0408   92.6730   11.3095 C.3     1  UNL1        0.0000
     34 C          67.1374   92.8192    9.8198 C.3     1  UNL1        0.0000
     35 C          68.0499   93.8504    9.2249 C.3     1  UNL1        0.0000
     36 C          67.2320   96.3030    9.4807 C.3     1  UNL1        0.0000
     37 C          67.4783   95.0988    8.6209 C.3     1  UNL1        0.0000
@<TRIPOS>BOND
     1    36    37    1
     2    37    35    1
     3    35    34    1
     4    34    33    1
     5    33    32    1
     6    32    31    1
     7    31    30    1
     8    30    29    1
     9    29    28    1
    10    28    27    1
    11    27    26    1
    12    26    25    1
    13    25    24    1
    14    24    23    1
    15    23    22    1
    16    22     1    1
    17     1     2    2
    18     1     3    1
    19     1     5    1
    20     5     6    1
    21     6     7    1
    22     7     8    1
    23     7     9    1
    24     9    10    1
    25    10    11   ar
    26    11    12   ar
    27    12    13   ar
    28    13    14   ar
    29    14    15    1
    30    14    16   ar
    31    16    17   ar
    32    17    18   ar
    33    18    19   ar
    34    19    10   ar
    35    19    13   ar
    36     3     4    1
    37    15    20    1
    38    15    21    1
@<TRIPOS>MOLECULE
*****
 37 38 0 0 0
SMALL
GASTEIGER

@<TRIPOS>ATOM
      1 P          59.4789   88.1645    7.9928 P.3     1  UNL1        0.3697
      2 O          59.1643   88.9851    6.7772 O.2     1  UNL1       -0.2553
      3 O          58.5277   87.1041    7.5232 O.3     1  UNL1       -0.3218
      4 H          58.1308   87.3758    6.6808 H       1  UNL1        0.2198
      5 C          59.7936   87.3440    9.2084 C.3     1  UNL1        0.2579
      6 O          60.4230   85.9909    9.0576 O.3     1  UNL1       -0.3426
      7 C          61.9004   85.8245    9.2568 C.3     1  UNL1        0.1387
      8 C          62.8122   85.7369    8.0689 C.3     1  UNL1        0.0342
      9 C          62.4661   85.7458   10.6439 C.3     1  UNL1        0.1384
     10 N          62.8678   84.4185   11.2158 N.ar    1  UNL1       -0.2918
     11 C          63.4800   83.2797   10.4553 C.ar    1  UNL1        0.1798
     12 N          63.7185   82.1545   11.4181 N.ar    1  UNL1       -0.2195
     13 C          63.2536   82.5979   12.7736 C.ar    1  UNL1        0.1481
     14 C          63.2411   81.9082   14.1056 C.ar    1  UNL1        0.1480
     15 N          63.7669   80.5089   14.2307 N.pl3   1  UNL1       -0.3413
     16 N          62.7029   82.6179   15.3125 N.ar    1  UNL1       -0.2078
     17 C          62.1772   84.0171   15.1875 C.ar    1  UNL1        0.2015
     18 N          62.1897   84.7068   13.8555 N.ar    1  UNL1       -0.2048
     19 C          62.7279   83.9971   12.6486 C.ar    1  UNL1        0.1674
     20 H          64.1201   80.0432   13.4385 H       1  UNL1        0.1438
     21 H          63.7587   80.0563   15.1049 H       1  UNL1        0.1438
     22 O          60.4302   89.2250    8.4624 O.3     1  UNL1       -0.2926
     23 C          60.7678   89.3378    9.9195 C.3     1  UNL1        0.1514
     24 C          62.1817   89.6048   10.3433 C.3     1  UNL1        0.0326
     25 C          62.5099   90.8441   11.1219 C.3     1  UNL1        0.0026
     26 C          63.9346   91.1518   11.4763 C.3     1  UNL1        0.0001
     27 C          64.6454   92.2898   10.8055 C.3     1  UNL1        0.0000
     28 C          66.0005   92.7160   11.2872 C.3     1  UNL1        0.0000
     29 C          66.1211   93.7050   12.4085 C.3     1  UNL1        0.0000
     30 C          66.8456   93.3279   13.6666 C.3     1  UNL1        0.0000
     31 C          66.0754   92.8435   14.8592 C.3     1  UNL1        0.0000
     32 C          65.6744   91.4015   14.9580 C.3     1  UNL1        0.0000
     33 C          64.2359   91.0363   15.1752 C.3     1  UNL1        0.0000
     34 C          63.8216   89.5947   15.1862 C.3     1  UNL1        0.0000
     35 C          64.3020   88.6679   14.1092 C.3     1  UNL1        0.0000
     36 C          65.1067   86.4028   15.0949 C.3     1  UNL1        0.0000
     37 C          64.1330   87.1856   14.2647 C.3     1  UNL1        0.0000
@<TRIPOS>BOND
     1    36    37    1
     2    37    35    1
     3    35    34    1
     4    34    33    1
     5    33    32    1
     6    32    31    1
     7    31    30    1
     8    30    29    1
     9    29    28    1
    10    28    27    1
    11    27    26    1
    12    26    25    1
    13    25    24    1
    14    24    23    1
    15    23    22    1
    16    22     1    1
    17     1     2    2
    18     1     3    1
    19     1     5    1
    20     5     6    1
    21     6     7    1
    22     7     8    1
    23     7     9    1
    24     9    10    1
    25    10    11   ar
    26    11    12   ar
    27    12    13   ar
    28    13    14   ar
    29    14    15    1
    30    14    16   ar
    31    16    17   ar
    32    17    18   ar
    33    18    19   ar
    34    19    10   ar
    35    19    13   ar
    36     3     4    1
    37    15    20    1
    38    15    21    1
