@<TRIPOS>MOLECULE
*****
 34 39 0 0 0
SMALL
GASTEIGER

@<TRIPOS>ATOM
      1 C          63.5914   87.5498   13.8274 C.ar    1  UNL1        0.2182
      2 N          63.8874   86.2650   14.5427 N.ar    1  UNL1       -0.2122
      3 C          63.6601   84.9528   13.8526 C.ar    1  UNL1        0.1049
      4 C          63.1369   84.9253   12.4471 C.ar    1  UNL1        0.0582
      5 C          62.8409   86.2100   11.7317 C.ar    1  UNL1        0.1533
      6 N          63.0681   87.5222   12.4219 N.ar    1  UNL1       -0.1960
      7 N          62.3176   86.1825   10.3262 N.ar    1  UNL1       -0.2739
      8 C          62.7058   85.2016    9.2599 C.ar    1  UNL1        0.0974
      9 C          61.9424   85.5439    8.0149 C.ar    1  UNL1        0.0778
     10 N          61.0824   86.7365    8.3117 N.ar    1  UNL1       -0.2307
     11 C          61.3143   87.1311    9.7402 C.ar    1  UNL1        0.1484
     12 C          60.6580   88.2738   10.4568 C.ar    1  UNL1        0.0345
     13 C          60.9795   89.6866   10.0684 C.ar    1  UNL1        0.0030
     14 C          60.3232   90.8293   10.7850 C.ar    1  UNL1        0.0001
     15 C          59.3455   90.5593   11.8900 C.ar    1  UNL1        0.0000
     16 C          59.0240   89.1466   12.2785 C.ar    1  UNL1        0.0001
     17 C          59.6803   88.0039   11.5618 C.ar    1  UNL1        0.0030
     18 C          62.0246   84.8207    6.7034 C.3     1  UNL1        0.0419
     19 C          62.7979   84.4415    5.4752 C.3     1  UNL1        0.0064
     20 C          61.3938   83.9471    5.6598 C.3     1  UNL1        0.0064
     21 N          63.8186   88.8621   14.5175 N.pl3   1  UNL1       -0.3028
     22 H          63.6834   88.9369   15.4898 H       1  UNL1        0.1496
     23 O          67.6516   93.1425   13.8766 O.2     1  UNL1       -0.2677
     24 C          66.5374   93.0797   12.8743 C.2     1  UNL1        0.2730
     25 N          65.5016   91.9991   12.9709 N.am    1  UNL1       -0.2727
     26 C          64.3357   91.8101   12.0462 C.3     1  UNL1        0.0956
     27 C          63.5634   90.6119   12.5130 C.3     1  UNL1        0.0428
     28 C          64.2519   90.0605   13.7262 C.3     1  UNL1        0.0932
     29 C          65.4497   90.9178   14.0092 C.3     1  UNL1        0.1133
     30 C          66.4591   94.0976   11.7754 C.ar    1  UNL1        0.1643
     31 N          66.0707   95.5378   11.9336 N.ar    1  UNL1       -0.2322
     32 C          66.1270   96.1843   10.5812 C.ar    1  UNL1        0.1066
     33 C          66.5501   95.1437    9.5872 C.ar    1  UNL1        0.0577
     34 S          66.7554   93.8541   10.3252 S.2     1  UNL1       -0.0614
@<TRIPOS>BOND
     1    23    24    2
     2    24    30    1
     3    30    31   ar
     4    31    32   ar
     5    32    33   ar
     6    33    34   ar
     7    24    25   am
     8    25    26    1
     9    26    27    1
    10    27    28    1
    11    28    21    1
    12    21     1    1
    13     1     2   ar
    14     2     3   ar
    15     3     4   ar
    16     4     5   ar
    17     5     7    1
    18     7     8   ar
    19     8     9   ar
    20     9    18    1
    21    18    19    1
    22    19    20    1
    23     9    10   ar
    24    10    11   ar
    25    11    12    1
    26    12    13   ar
    27    13    14   ar
    28    14    15   ar
    29    15    16   ar
    30    16    17   ar
    31     5     6   ar
    32    28    29    1
    33    34    30   ar
    34    29    25    1
    35     6     1   ar
    36    11     7   ar
    37    17    12   ar
    38    20    18    1
    39    21    22    1
@<TRIPOS>MOLECULE
*****
 34 39 0 0 0
SMALL
GASTEIGER

@<TRIPOS>ATOM
      1 C          64.2833   88.2724   14.5154 C.ar    1  UNL1        0.2182
      2 N          64.7296   87.0334   15.2334 N.ar    1  UNL1       -0.2122
      3 C          64.3908   85.6817   14.6782 C.ar    1  UNL1        0.1049
      4 C          63.6057   85.5692   13.4050 C.ar    1  UNL1        0.0582
      5 C          63.1594   86.8082   12.6871 C.ar    1  UNL1        0.1533
      6 N          63.4982   88.1598   13.2423 N.ar    1  UNL1       -0.1960
      7 N          62.3743   86.6956   11.4139 N.ar    1  UNL1       -0.2739
      8 C          61.6373   87.8094   10.7311 C.ar    1  UNL1        0.0974
      9 C          60.9958   87.2516    9.4952 C.ar    1  UNL1        0.0778
     10 N          61.3364   85.7930    9.4142 N.ar    1  UNL1       -0.2307
     11 C          62.1883   85.4494   10.6000 C.ar    1  UNL1        0.1484
     12 C          62.7549   84.0970   10.9163 C.ar    1  UNL1        0.0345
     13 C          62.1797   83.2871   12.0404 C.ar    1  UNL1        0.0030
     14 C          62.7462   81.9347   12.3567 C.ar    1  UNL1        0.0001
     15 C          63.8879   81.3922   11.5491 C.ar    1  UNL1        0.0000
     16 C          64.4630   82.2021   10.4251 C.ar    1  UNL1        0.0001
     17 C          63.8965   83.5545   10.1088 C.ar    1  UNL1        0.0030
     18 C          60.1605   88.0179    8.5129 C.3     1  UNL1        0.0419
     19 C          59.7884   89.3147    7.8573 C.3     1  UNL1        0.0064
     20 C          59.0856   88.0482    7.4670 C.3     1  UNL1        0.0064
     21 N          64.6220   89.6241   15.0706 N.pl3   1  UNL1       -0.3028
     22 H          64.5331   89.7962   16.0359 H       1  UNL1        0.1496
     23 O          63.9689   92.3640   10.0218 O.2     1  UNL1       -0.2677
     24 C          65.0650   92.8569   10.9193 C.2     1  UNL1        0.2730
     25 N          65.2999   92.1995   12.2470 N.am    1  UNL1       -0.2727
     26 C          66.3523   92.5807   13.2456 C.3     1  UNL1        0.0956
     27 C          66.2264   91.6623   14.4249 C.3     1  UNL1        0.0428
     28 C          65.0963   90.7136   14.1551 C.3     1  UNL1        0.0932
     29 C          64.5237   91.0456   12.8091 C.3     1  UNL1        0.1133
     30 C          65.9263   94.0072   10.4891 C.ar    1  UNL1        0.1643
     31 N          65.7581   95.4384   10.9052 N.ar    1  UNL1       -0.2322
     32 C          66.8349   96.2440   10.2405 C.ar    1  UNL1        0.1066
     33 C          67.6684   95.3105    9.4135 C.ar    1  UNL1        0.0577
     34 S          67.1069   93.9281    9.5672 S.2     1  UNL1       -0.0614
@<TRIPOS>BOND
     1    23    24    2
     2    24    30    1
     3    30    31   ar
     4    31    32   ar
     5    32    33   ar
     6    33    34   ar
     7    24    25   am
     8    25    26    1
     9    26    27    1
    10    27    28    1
    11    28    21    1
    12    21     1    1
    13     1     2   ar
    14     2     3   ar
    15     3     4   ar
    16     4     5   ar
    17     5     7    1
    18     7     8   ar
    19     8     9   ar
    20     9    18    1
    21    18    19    1
    22    19    20    1
    23     9    10   ar
    24    10    11   ar
    25    11    12    1
    26    12    13   ar
    27    13    14   ar
    28    14    15   ar
    29    15    16   ar
    30    16    17   ar
    31     5     6   ar
    32    28    29    1
    33    34    30   ar
    34    29    25    1
    35     6     1   ar
    36    11     7   ar
    37    17    12   ar
    38    20    18    1
    39    21    22    1
@<TRIPOS>MOLECULE
*****
 34 39 0 0 0
SMALL
GASTEIGER

@<TRIPOS>ATOM
      1 C          62.3777   88.1918   11.7228 C.ar    1  UNL1        0.2182
      2 N          61.6818   88.5223   10.4358 N.ar    1  UNL1       -0.2122
      3 C          61.2707   87.4230    9.5018 C.ar    1  UNL1        0.1049
      4 C          61.5555   85.9932    9.8548 C.ar    1  UNL1        0.0582
      5 C          62.2514   85.6627   11.1418 C.ar    1  UNL1        0.1533
      6 N          62.6625   86.7621   12.0758 N.ar    1  UNL1       -0.1960
      7 N          62.5362   84.2330   11.4948 N.ar    1  UNL1       -0.2739
      8 C          62.4647   83.0627   10.5592 C.ar    1  UNL1        0.0974
      9 C          62.8268   81.8289   11.3315 C.ar    1  UNL1        0.0778
     10 N          63.1221   82.2365   12.7445 N.ar    1  UNL1       -0.2307
     11 C          62.9425   83.7223   12.8454 C.ar    1  UNL1        0.1484
     12 C          63.1353   84.5518   14.0802 C.ar    1  UNL1        0.0345
     13 C          62.1795   84.4204   15.2289 C.ar    1  UNL1        0.0030
     14 C          62.3724   85.2499   16.4637 C.ar    1  UNL1        0.0001
     15 C          63.5209   86.2109   16.5499 C.ar    1  UNL1        0.0000
     16 C          64.4766   86.3423   15.4013 C.ar    1  UNL1        0.0001
     17 C          64.2837   85.5128   14.1665 C.ar    1  UNL1        0.0030
     18 C          62.8836   80.4325   10.7865 C.3     1  UNL1        0.0419
     19 C          63.1022   79.4949    9.6363 C.3     1  UNL1        0.0064
     20 C          62.7635   78.9516   10.9928 C.3     1  UNL1        0.0064
     21 N          62.7889   89.2912   12.6569 N.pl3   1  UNL1       -0.3028
     22 H          62.5592   89.2367   13.6127 H       1  UNL1        0.1496
     23 O          66.5480   93.5381   13.7779 O.2     1  UNL1       -0.2677
     24 C          66.0112   93.4649   12.3792 C.2     1  UNL1        0.2730
     25 N          65.0312   92.3920   12.0071 N.am    1  UNL1       -0.2727
     26 C          64.4115   92.1941   10.6555 C.3     1  UNL1        0.0956
     27 C          63.4961   91.0084   10.7344 C.3     1  UNL1        0.0428
     28 C          63.5500   90.4735   12.1348 C.3     1  UNL1        0.0932
     29 C          64.4988   91.3286   12.9214 C.3     1  UNL1        0.1133
     30 C          66.4546   94.4645   11.3525 C.ar    1  UNL1        0.1643
     31 N          67.4061   94.2049   10.2224 N.ar    1  UNL1       -0.2322
     32 C          67.5638   95.4793    9.4471 C.ar    1  UNL1        0.1066
     33 C          66.7097   96.5266   10.0980 C.ar    1  UNL1        0.0577
     34 S          66.0242   95.8994   11.2756 S.2     1  UNL1       -0.0614
@<TRIPOS>BOND
     1    23    24    2
     2    24    30    1
     3    30    31   ar
     4    31    32   ar
     5    32    33   ar
     6    33    34   ar
     7    24    25   am
     8    25    26    1
     9    26    27    1
    10    27    28    1
    11    28    21    1
    12    21     1    1
    13     1     2   ar
    14     2     3   ar
    15     3     4   ar
    16     4     5   ar
    17     5     7    1
    18     7     8   ar
    19     8     9   ar
    20     9    18    1
    21    18    19    1
    22    19    20    1
    23     9    10   ar
    24    10    11   ar
    25    11    12    1
    26    12    13   ar
    27    13    14   ar
    28    14    15   ar
    29    15    16   ar
    30    16    17   ar
    31     5     6   ar
    32    28    29    1
    33    34    30   ar
    34    29    25    1
    35     6     1   ar
    36    11     7   ar
    37    17    12   ar
    38    20    18    1
    39    21    22    1
@<TRIPOS>MOLECULE
*****
 34 39 0 0 0
SMALL
GASTEIGER

@<TRIPOS>ATOM
      1 C          62.1946   87.7971   11.5112 C.ar    1  UNL1        0.2182
      2 N          62.1590   88.1829   10.0621 N.ar    1  UNL1       -0.2122
      3 C          62.3201   87.1335    9.0025 C.ar    1  UNL1        0.1049
      4 C          62.5169   85.6984    9.3919 C.ar    1  UNL1        0.0582
      5 C          62.5524   85.3126   10.8410 C.ar    1  UNL1        0.1533
      6 N          62.3913   86.3619   11.9006 N.ar    1  UNL1       -0.1960
      7 N          62.7492   83.8774   11.2304 N.ar    1  UNL1       -0.2739
      8 C          62.6487   82.6936   10.3147 C.ar    1  UNL1        0.0974
      9 C          62.9184   81.4587   11.1223 C.ar    1  UNL1        0.0778
     10 N          63.1854   81.8792   12.5371 N.ar    1  UNL1       -0.2307
     11 C          63.0809   83.3741   12.6039 C.ar    1  UNL1        0.1484
     12 C          63.2741   84.2175   13.8292 C.ar    1  UNL1        0.0345
     13 C          64.5081   85.0579   13.9743 C.ar    1  UNL1        0.0030
     14 C          64.7013   85.9013   15.1996 C.ar    1  UNL1        0.0001
     15 C          63.6606   85.9044   16.2798 C.ar    1  UNL1        0.0000
     16 C          62.4266   85.0640   16.1347 C.ar    1  UNL1        0.0001
     17 C          62.2334   84.2206   14.9094 C.ar    1  UNL1        0.0030
     18 C          62.9205   80.0504   10.6057 C.3     1  UNL1        0.0419
     19 C          62.7682   78.5779   10.8472 C.3     1  UNL1        0.0064
     20 C          63.0767   79.0839    9.4693 C.3     1  UNL1        0.0064
     21 N          62.0334   88.8464   12.5709 N.pl3   1  UNL1       -0.3028
     22 H          61.1417   89.0397   12.9407 H       1  UNL1        0.1496
     23 O          65.6263   93.3121   11.8137 O.2     1  UNL1       -0.2677
     24 C          65.8904   92.4274   12.9959 C.2     1  UNL1        0.2730
     25 N          65.0037   91.2473   13.2625 N.am    1  UNL1       -0.2727
     26 C          65.1434   90.2784   14.3992 C.3     1  UNL1        0.0956
     27 C          64.0478   89.2611   14.2784 C.3     1  UNL1        0.0428
     28 C          63.2309   89.6013   13.0672 C.3     1  UNL1        0.0932
     29 C          63.8217   90.8287   12.4393 C.3     1  UNL1        0.1133
     30 C          67.0412   92.7230   13.9116 C.ar    1  UNL1        0.1643
     31 N          68.4564   92.2617   13.7262 N.ar    1  UNL1       -0.2322
     32 C          69.2686   92.7854   14.8734 C.ar    1  UNL1        0.1066
     33 C          68.3554   93.5703   15.7678 C.ar    1  UNL1        0.0577
     34 S          66.9787   93.5317   15.1733 S.2     1  UNL1       -0.0614
@<TRIPOS>BOND
     1    23    24    2
     2    24    30    1
     3    30    31   ar
     4    31    32   ar
     5    32    33   ar
     6    33    34   ar
     7    24    25   am
     8    25    26    1
     9    26    27    1
    10    27    28    1
    11    28    21    1
    12    21     1    1
    13     1     2   ar
    14     2     3   ar
    15     3     4   ar
    16     4     5   ar
    17     5     7    1
    18     7     8   ar
    19     8     9   ar
    20     9    18    1
    21    18    19    1
    22    19    20    1
    23     9    10   ar
    24    10    11   ar
    25    11    12    1
    26    12    13   ar
    27    13    14   ar
    28    14    15   ar
    29    15    16   ar
    30    16    17   ar
    31     5     6   ar
    32    28    29    1
    33    34    30   ar
    34    29    25    1
    35     6     1   ar
    36    11     7   ar
    37    17    12   ar
    38    20    18    1
    39    21    22    1
@<TRIPOS>MOLECULE
*****
 34 39 0 0 0
SMALL
GASTEIGER

@<TRIPOS>ATOM
      1 C          63.0270   89.6715   11.7764 C.ar    1  UNL1        0.2182
      2 N          62.8136   89.5450   13.2557 N.ar    1  UNL1       -0.2122
      3 C          63.4379   90.5377   14.1910 C.ar    1  UNL1        0.1049
      4 C          64.2755   91.6568   13.6470 C.ar    1  UNL1        0.0582
      5 C          64.4889   91.7833   12.1677 C.ar    1  UNL1        0.1533
      6 N          63.8646   90.7906   11.2324 N.ar    1  UNL1       -0.1960
      7 N          65.3265   92.9024   11.6237 N.ar    1  UNL1       -0.2739
      8 C          65.0902   93.6354   10.3365 C.ar    1  UNL1        0.0974
      9 C          66.1651   94.6711   10.1887 C.ar    1  UNL1        0.0778
     10 N          67.0658   94.5782   11.3846 N.ar    1  UNL1       -0.2307
     11 C          66.5475   93.4851   12.2715 C.ar    1  UNL1        0.1484
     12 C          67.1453   93.0510   13.5769 C.ar    1  UNL1        0.0345
     13 C          68.0676   91.8689   13.6232 C.ar    1  UNL1        0.0030
     14 C          68.6654   91.4348   14.9287 C.ar    1  UNL1        0.0001
     15 C          68.3410   92.1827   16.1878 C.ar    1  UNL1        0.0000
     16 C          67.4187   93.3647   16.1414 C.ar    1  UNL1        0.0001
     17 C          66.8209   93.7989   14.8360 C.ar    1  UNL1        0.0030
     18 C          66.3134   95.6310    9.0457 C.3     1  UNL1        0.0419
     19 C          65.7552   96.7315    8.1928 C.3     1  UNL1        0.0064
     20 C          67.1282   96.1933    7.9188 C.3     1  UNL1        0.0064
     21 N          62.4028   88.6788   10.8409 N.pl3   1  UNL1       -0.3028
     22 H          61.9980   88.9846    9.9972 H       1  UNL1        0.1496
     23 O          64.0003   84.5635   14.5740 O.2     1  UNL1       -0.2677
     24 C          63.2248   84.1172   13.3701 C.2     1  UNL1        0.2730
     25 N          62.7730   85.1236   12.3536 N.am    1  UNL1       -0.2727
     26 C          61.9940   84.8281   11.1062 C.3     1  UNL1        0.0956
     27 C          61.7605   86.1240   10.3878 C.3     1  UNL1        0.0428
     28 C          62.3952   87.2203   11.1911 C.3     1  UNL1        0.0932
     29 C          63.0210   86.6020   12.4060 C.3     1  UNL1        0.1133
     30 C          62.9011   82.6646   13.1827 C.ar    1  UNL1        0.1643
     31 N          63.3380   81.8050   12.0337 N.ar    1  UNL1       -0.2322
     32 C          62.7905   80.4257   12.2523 C.ar    1  UNL1        0.1066
     33 C          62.0152   80.4329   13.5363 C.ar    1  UNL1        0.0577
     34 S          62.0835   81.8166   14.1113 S.2     1  UNL1       -0.0614
@<TRIPOS>BOND
     1    23    24    2
     2    24    30    1
     3    30    31   ar
     4    31    32   ar
     5    32    33   ar
     6    33    34   ar
     7    24    25   am
     8    25    26    1
     9    26    27    1
    10    27    28    1
    11    28    21    1
    12    21     1    1
    13     1     2   ar
    14     2     3   ar
    15     3     4   ar
    16     4     5   ar
    17     5     7    1
    18     7     8   ar
    19     8     9   ar
    20     9    18    1
    21    18    19    1
    22    19    20    1
    23     9    10   ar
    24    10    11   ar
    25    11    12    1
    26    12    13   ar
    27    13    14   ar
    28    14    15   ar
    29    15    16   ar
    30    16    17   ar
    31     5     6   ar
    32    28    29    1
    33    34    30   ar
    34    29    25    1
    35     6     1   ar
    36    11     7   ar
    37    17    12   ar
    38    20    18    1
    39    21    22    1
@<TRIPOS>MOLECULE
*****
 34 39 0 0 0
SMALL
GASTEIGER

@<TRIPOS>ATOM
      1 C          63.9754   89.5302   13.4749 C.ar    1  UNL1        0.2182
      2 N          62.5798   89.4319   12.9341 N.ar    1  UNL1       -0.2122
      3 C          62.0928   90.4332   11.9290 C.ar    1  UNL1        0.1049
      4 C          63.0013   91.5327   11.4648 C.ar    1  UNL1        0.0582
      5 C          64.3969   91.6310   12.0056 C.ar    1  UNL1        0.1533
      6 N          64.8840   90.6298   13.0107 N.ar    1  UNL1       -0.1960
      7 N          65.3055   92.7306   11.5414 N.ar    1  UNL1       -0.2739
      8 C          65.2255   93.4433   10.2240 C.ar    1  UNL1        0.0974
      9 C          66.3241   94.4637   10.1814 C.ar    1  UNL1        0.0778
     10 N          67.0832   94.3816   11.4726 N.ar    1  UNL1       -0.2307
     11 C          66.4536   93.3105   12.3131 C.ar    1  UNL1        0.1484
     12 C          66.8948   92.8926   13.6845 C.ar    1  UNL1        0.0345
     13 C          66.0384   93.2055   14.8757 C.ar    1  UNL1        0.0030
     14 C          66.4796   92.7876   16.2471 C.ar    1  UNL1        0.0001
     15 C          67.7771   92.0570   16.4274 C.ar    1  UNL1        0.0000
     16 C          68.6335   91.7442   15.2363 C.ar    1  UNL1        0.0001
     17 C          68.1923   92.1620   13.8649 C.ar    1  UNL1        0.0030
     18 C          66.6130   95.4014    9.0469 C.3     1  UNL1        0.0419
     19 C          66.4516   95.7858    7.6060 C.3     1  UNL1        0.0064
     20 C          67.2747   96.6414    8.5228 C.3     1  UNL1        0.0064
     21 N          64.4626   88.5289   14.4801 N.pl3   1  UNL1       -0.3028
     22 H          65.0301   88.8203   15.2299 H       1  UNL1        0.1496
     23 O          62.3349   84.3577   11.0892 O.2     1  UNL1       -0.2677
     24 C          62.7268   83.9602   12.4815 C.2     1  UNL1        0.2730
     25 N          63.2872   84.9838   13.4240 N.am    1  UNL1       -0.2727
     26 C          63.7210   84.7359   14.8384 C.3     1  UNL1        0.0956
     27 C          64.2140   86.0338   15.4062 C.3     1  UNL1        0.0428
     28 C          64.0850   87.0838   14.3427 C.3     1  UNL1        0.0932
     29 C          63.5122   86.4348   13.1177 C.3     1  UNL1        0.1133
     30 C          62.5583   82.5392   12.9312 C.ar    1  UNL1        0.1643
     31 N          61.8167   82.0830   14.1527 N.ar    1  UNL1       -0.2322
     32 C          61.9020   80.5867   14.2147 C.ar    1  UNL1        0.1066
     33 C          62.6962   80.1181   13.0317 C.ar    1  UNL1        0.0577
     34 S          63.1018   81.3248   12.2384 S.2     1  UNL1       -0.0614
@<TRIPOS>BOND
     1    23    24    2
     2    24    30    1
     3    30    31   ar
     4    31    32   ar
     5    32    33   ar
     6    33    34   ar
     7    24    25   am
     8    25    26    1
     9    26    27    1
    10    27    28    1
    11    28    21    1
    12    21     1    1
    13     1     2   ar
    14     2     3   ar
    15     3     4   ar
    16     4     5   ar
    17     5     7    1
    18     7     8   ar
    19     8     9   ar
    20     9    18    1
    21    18    19    1
    22    19    20    1
    23     9    10   ar
    24    10    11   ar
    25    11    12    1
    26    12    13   ar
    27    13    14   ar
    28    14    15   ar
    29    15    16   ar
    30    16    17   ar
    31     5     6   ar
    32    28    29    1
    33    34    30   ar
    34    29    25    1
    35     6     1   ar
    36    11     7   ar
    37    17    12   ar
    38    20    18    1
    39    21    22    1
@<TRIPOS>MOLECULE
*****
 34 39 0 0 0
SMALL
GASTEIGER

@<TRIPOS>ATOM
      1 C          62.1558   90.4143   10.2558 C.ar    1  UNL1        0.2182
      2 N          60.6755   90.6326   10.1516 N.ar    1  UNL1       -0.2122
      3 C          59.7284   89.5124   10.4647 C.ar    1  UNL1        0.1049
      4 C          60.2616   88.1739   10.8821 C.ar    1  UNL1        0.0582
      5 C          61.7419   87.9556   10.9863 C.ar    1  UNL1        0.1533
      6 N          62.6890   89.0759   10.6731 N.ar    1  UNL1       -0.1960
      7 N          62.2752   86.6172   11.4036 N.ar    1  UNL1       -0.2739
      8 C          62.7756   86.2546   12.7704 C.ar    1  UNL1        0.0974
      9 C          63.2113   84.8196   12.7390 C.ar    1  UNL1        0.0778
     10 N          62.9802   84.2953   11.3527 N.ar    1  UNL1       -0.2307
     11 C          62.4017   85.4063   10.5274 C.ar    1  UNL1        0.1484
     12 C          62.0171   85.3212    9.0801 C.ar    1  UNL1        0.0345
     13 C          62.9844   84.7630    8.0786 C.ar    1  UNL1        0.0030
     14 C          62.5999   84.6779    6.6312 C.ar    1  UNL1        0.0001
     15 C          61.2481   85.1510    6.1853 C.ar    1  UNL1        0.0000
     16 C          60.2809   85.7092    7.1867 C.ar    1  UNL1        0.0001
     17 C          60.6654   85.7943    8.6341 C.ar    1  UNL1        0.0030
     18 C          63.7785   84.0450   13.8914 C.3     1  UNL1        0.0419
     19 C          63.9279   82.7545   14.6413 C.3     1  UNL1        0.0064
     20 C          64.6117   83.9939   15.1377 C.3     1  UNL1        0.0064
     21 N          63.1030   91.5345    9.9426 N.pl3   1  UNL1       -0.3028
     22 H          62.9921   92.0561    9.1151 H       1  UNL1        0.1496
     23 O          65.1394   91.2393   15.3454 O.2     1  UNL1       -0.2677
     24 C          66.0124   91.9185   14.3322 C.2     1  UNL1        0.2730
     25 N          65.5565   92.0365   12.9080 N.am    1  UNL1       -0.2727
     26 C          66.3170   92.6853   11.7896 C.3     1  UNL1        0.0956
     27 C          65.4905   92.5762   10.5426 C.3     1  UNL1        0.0428
     28 C          64.2191   91.8600   10.8904 C.3     1  UNL1        0.0932
     29 C          64.2599   91.5265   12.3522 C.3     1  UNL1        0.1133
     30 C          67.3414   92.4797   14.7431 C.ar    1  UNL1        0.1643
     31 N          68.6670   92.1520   14.1222 N.ar    1  UNL1       -0.2322
     32 C          69.7229   92.9369   14.8426 C.ar    1  UNL1        0.1066
     33 C          69.0500   93.7497   15.9086 C.ar    1  UNL1        0.0577
     34 S          67.5782   93.4671   15.8472 S.2     1  UNL1       -0.0614
@<TRIPOS>BOND
     1    23    24    2
     2    24    30    1
     3    30    31   ar
     4    31    32   ar
     5    32    33   ar
     6    33    34   ar
     7    24    25   am
     8    25    26    1
     9    26    27    1
    10    27    28    1
    11    28    21    1
    12    21     1    1
    13     1     2   ar
    14     2     3   ar
    15     3     4   ar
    16     4     5   ar
    17     5     7    1
    18     7     8   ar
    19     8     9   ar
    20     9    18    1
    21    18    19    1
    22    19    20    1
    23     9    10   ar
    24    10    11   ar
    25    11    12    1
    26    12    13   ar
    27    13    14   ar
    28    14    15   ar
    29    15    16   ar
    30    16    17   ar
    31     5     6   ar
    32    28    29    1
    33    34    30   ar
    34    29    25    1
    35     6     1   ar
    36    11     7   ar
    37    17    12   ar
    38    20    18    1
    39    21    22    1
@<TRIPOS>MOLECULE
*****
 34 39 0 0 0
SMALL
GASTEIGER

@<TRIPOS>ATOM
      1 C          63.9930   87.2501   15.8753 C.ar    1  UNL1        0.2182
      2 N          63.0353   87.7489   16.9164 N.ar    1  UNL1       -0.2122
      3 C          62.4028   89.1008   16.7672 C.ar    1  UNL1        0.1049
      4 C          62.7281   89.9539   15.5770 C.ar    1  UNL1        0.0582
      5 C          63.6858   89.4550   14.5360 C.ar    1  UNL1        0.1533
      6 N          64.3183   88.1031   14.6852 N.ar    1  UNL1       -0.1960
      7 N          64.0111   90.3081   13.3458 N.ar    1  UNL1       -0.2739
      8 C          64.9816   91.4515   13.3194 C.ar    1  UNL1        0.0974
      9 C          64.9933   92.0176   11.9304 C.ar    1  UNL1        0.0778
     10 N          64.0301   91.2240   11.0983 N.ar    1  UNL1       -0.2307
     11 C          63.4230   90.1675   11.9731 C.ar    1  UNL1        0.1484
     12 C          62.4064   89.1491   11.5495 C.ar    1  UNL1        0.0345
     13 C          61.0398   89.5894   11.1150 C.ar    1  UNL1        0.0030
     14 C          60.0232   88.5710   10.6914 C.ar    1  UNL1        0.0001
     15 C          60.3731   87.1125   10.7023 C.ar    1  UNL1        0.0000
     16 C          61.7396   86.6722   11.1368 C.ar    1  UNL1        0.0001
     17 C          62.7562   87.6906   11.5604 C.ar    1  UNL1        0.0030
     18 C          65.8227   93.1742   11.4566 C.3     1  UNL1        0.0419
     19 C          66.8723   93.7313   10.5413 C.3     1  UNL1        0.0064
     20 C          66.2095   94.6204   11.5514 C.3     1  UNL1        0.0064
     21 N          64.6256   85.8981   16.0244 N.pl3   1  UNL1       -0.3028
     22 H          65.2241   85.7158   16.7846 H       1  UNL1        0.1496
     23 O          61.3232   81.4095   14.4849 O.2     1  UNL1       -0.2677
     24 C          62.4385   81.7771   13.5517 C.2     1  UNL1        0.2730
     25 N          63.3409   82.9298   13.8788 N.am    1  UNL1       -0.2727
     26 C          64.4918   83.4123   13.0465 C.3     1  UNL1        0.0956
     27 C          65.1131   84.5830   13.7489 C.3     1  UNL1        0.0428
     28 C          64.3463   84.8240   15.0154 C.3     1  UNL1        0.0932
     29 C          63.2510   83.8022   15.0957 C.3     1  UNL1        0.1133
     30 C          62.6513   80.9921   12.2914 C.ar    1  UNL1        0.1643
     31 N          62.5455   79.5023   12.1521 N.ar    1  UNL1       -0.2322
     32 C          62.8362   79.1485   10.7237 C.ar    1  UNL1        0.1066
     33 C          63.1216   80.4196    9.9802 C.ar    1  UNL1        0.0577
     34 S          63.0074   81.5590   10.9491 S.2     1  UNL1       -0.0614
@<TRIPOS>BOND
     1    23    24    2
     2    24    30    1
     3    30    31   ar
     4    31    32   ar
     5    32    33   ar
     6    33    34   ar
     7    24    25   am
     8    25    26    1
     9    26    27    1
    10    27    28    1
    11    28    21    1
    12    21     1    1
    13     1     2   ar
    14     2     3   ar
    15     3     4   ar
    16     4     5   ar
    17     5     7    1
    18     7     8   ar
    19     8     9   ar
    20     9    18    1
    21    18    19    1
    22    19    20    1
    23     9    10   ar
    24    10    11   ar
    25    11    12    1
    26    12    13   ar
    27    13    14   ar
    28    14    15   ar
    29    15    16   ar
    30    16    17   ar
    31     5     6   ar
    32    28    29    1
    33    34    30   ar
    34    29    25    1
    35     6     1   ar
    36    11     7   ar
    37    17    12   ar
    38    20    18    1
    39    21    22    1
@<TRIPOS>MOLECULE
*****
 34 39 0 0 0
SMALL
GASTEIGER

@<TRIPOS>ATOM
      1 C          63.4531   88.6961   13.8195 C.ar    1  UNL1        0.2182
      2 N          64.4204   88.4925   14.9477 N.ar    1  UNL1       -0.2122
      3 C          64.9475   87.1201   15.2451 C.ar    1  UNL1        0.1049
      4 C          64.5073   85.9512   14.4144 C.ar    1  UNL1        0.0582
      5 C          63.5400   86.1549   13.2862 C.ar    1  UNL1        0.1533
      6 N          63.0129   87.5273   12.9888 N.ar    1  UNL1       -0.1960
      7 N          63.0998   84.9860   12.4555 N.ar    1  UNL1       -0.2739
      8 C          63.4359   83.5466   12.7107 C.ar    1  UNL1        0.0974
      9 C          62.7900   82.7224   11.6367 C.ar    1  UNL1        0.0778
     10 N          62.0548   83.6524   10.7177 N.ar    1  UNL1       -0.2307
     11 C          62.2463   85.0514   11.2238 C.ar    1  UNL1        0.1484
     12 C          61.6831   86.2971   10.6065 C.ar    1  UNL1        0.0345
     13 C          60.5630   87.0296   11.2841 C.ar    1  UNL1        0.0030
     14 C          59.9997   88.2753   10.6668 C.ar    1  UNL1        0.0001
     15 C          60.5565   88.7885    9.3720 C.ar    1  UNL1        0.0000
     16 C          61.6765   88.0560    8.6944 C.ar    1  UNL1        0.0001
     17 C          62.2398   86.8103    9.3117 C.ar    1  UNL1        0.0030
     18 C          62.8661   81.2301   11.5048 C.3     1  UNL1        0.0419
     19 C          62.7770   79.8653   12.1208 C.3     1  UNL1        0.0064
     20 C          63.0869   80.0102   10.6603 C.3     1  UNL1        0.0064
     21 N          62.9260   90.0686   13.5220 N.pl3   1  UNL1       -0.3028
     22 H          62.0566   90.3518   13.8870 H       1  UNL1        0.1496
     23 O          66.8771   94.2838   13.3108 O.2     1  UNL1       -0.2677
     24 C          66.3086   93.8265   12.0002 C.2     1  UNL1        0.2730
     25 N          65.2782   92.7369   11.9689 N.am    1  UNL1       -0.2727
     26 C          64.6228   92.1782   10.7407 C.3     1  UNL1        0.0956
     27 C          63.6619   91.1107   11.1730 C.3     1  UNL1        0.0428
     28 C          63.7234   91.0096   12.6684 C.3     1  UNL1        0.0932
     29 C          64.7223   92.0146   13.1602 C.3     1  UNL1        0.1133
     30 C          66.7706   94.4589   10.7209 C.ar    1  UNL1        0.1643
     31 N          67.7496   93.8695    9.7493 N.ar    1  UNL1       -0.2322
     32 C          67.9187   94.8382    8.6165 C.ar    1  UNL1        0.1066
     33 C          67.0441   96.0262    8.8880 C.ar    1  UNL1        0.0577
     34 S          66.3346   95.7918   10.1886 S.2     1  UNL1       -0.0614
@<TRIPOS>BOND
     1    23    24    2
     2    24    30    1
     3    30    31   ar
     4    31    32   ar
     5    32    33   ar
     6    33    34   ar
     7    24    25   am
     8    25    26    1
     9    26    27    1
    10    27    28    1
    11    28    21    1
    12    21     1    1
    13     1     2   ar
    14     2     3   ar
    15     3     4   ar
    16     4     5   ar
    17     5     7    1
    18     7     8   ar
    19     8     9   ar
    20     9    18    1
    21    18    19    1
    22    19    20    1
    23     9    10   ar
    24    10    11   ar
    25    11    12    1
    26    12    13   ar
    27    13    14   ar
    28    14    15   ar
    29    15    16   ar
    30    16    17   ar
    31     5     6   ar
    32    28    29    1
    33    34    30   ar
    34    29    25    1
    35     6     1   ar
    36    11     7   ar
    37    17    12   ar
    38    20    18    1
    39    21    22    1
