@<TRIPOS>MOLECULE
*****
 37 41 0 0 0
SMALL
GASTEIGER

@<TRIPOS>ATOM
      1 C          63.9382   89.3952   15.5146 C.ar    1  UNL1        0.0842
      2 N          63.4139   89.9926   16.7867 N.ar    1  UNL1       -0.2437
      3 C          62.8096   89.1087   17.8370 C.ar    1  UNL1        0.0988
      4 C          62.7296   87.6273   17.6154 C.ar    1  UNL1        0.0207
      5 C          63.2539   87.0299   16.3433 C.ar    1  UNL1        0.0043
      6 C          63.1739   85.5485   16.1217 C.ar    1  UNL1        0.0203
      7 C          63.6982   84.9511   14.8496 C.ar    1  UNL1        0.1253
      8 C          64.3025   85.8351   13.7992 C.ar    1  UNL1        0.0202
      9 C          64.3826   87.3164   14.0208 C.ar    1  UNL1        0.0029
     10 C          63.8582   87.9138   15.2929 C.ar    1  UNL1        0.0179
     11 C          63.7889   90.5635   13.1988 C.ar    1  UNL1        0.1401
     12 C          64.3932   91.4474   12.1483 C.ar    1  UNL1        0.0378
     13 C          65.7513   92.0471   12.3632 C.ar    1  UNL1        0.0137
     14 C          66.5050   91.7628   13.6286 C.ar    1  UNL1        0.0579
     15 CL         67.8629   92.3625   13.8435 Cl      1  UNL1       -0.0822
     16 C          65.9006   90.8788   14.6791 C.ar    1  UNL1        0.0159
     17 C          64.5426   90.2792   14.4641 C.ar    1  UNL1        0.0524
     18 C          66.3556   92.9310   11.3128 C.ar    1  UNL1        0.0031
     19 C          66.0348   94.3961   11.2902 C.ar    1  UNL1        0.0002
     20 C          66.6391   95.2801   10.2397 C.ar    1  UNL1        0.0023
     21 C          67.5642   94.6989    9.2119 C.ar    1  UNL1        0.0296
     22 C          67.8849   93.2337    9.2345 C.ar    1  UNL1        0.1401
     23 F          68.8099   92.6525    8.2066 F       1  UNL1       -0.2042
     24 C          67.2806   92.3498   10.2849 C.ar    1  UNL1        0.0297
     25 C          62.0980   89.3105   11.6753 C.3     1  UNL1        0.2525
     26 O          62.4308   89.9637   12.9839 O.3     1  UNL1       -0.4714
     27 S          63.6181   83.4697   14.6280 S.O2    1  UNL1        0.0758
     28 O          65.1141   83.4020   14.5407 O.2     1  UNL1       -0.1499
     29 O          62.1222   83.5375   14.7152 O.2     1  UNL1       -0.1499
     30 N          63.5381   81.9884   14.4063 N.pl3   1  UNL1       -0.1835
     31 H          63.5966   81.3722   15.1719 H       1  UNL1        0.1767
     32 C          63.3690   81.4458   13.0181 C.ar    1  UNL1        0.2360
     33 N          62.8296   80.0610   12.8146 N.ar    1  UNL1       -0.2110
     34 C          62.6605   79.5184   11.4265 C.ar    1  UNL1        0.1035
     35 C          63.0308   80.3606   10.2417 C.ar    1  UNL1        0.0414
     36 C          63.5703   81.7454   10.4452 C.ar    1  UNL1        0.1035
     37 N          63.7394   82.2880   11.8334 N.ar    1  UNL1       -0.2110
@<TRIPOS>BOND
     1    25    26    1
     2    26    11    1
     3    11    12   ar
     4    12    13   ar
     5    13    18    1
     6    18    19   ar
     7    19    20   ar
     8    20    21   ar
     9    21    22   ar
    10    22    23    1
    11    22    24   ar
    12    13    14   ar
    13    14    15    1
    14    14    16   ar
    15    16    17   ar
    16    17     1    1
    17     1     2   ar
    18     2     3   ar
    19     3     4   ar
    20     4     5   ar
    21     5     6   ar
    22     6     7   ar
    23     7    27    1
    24    27    28    2
    25    27    29    2
    26    27    30    1
    27    30    32    1
    28    32    33   ar
    29    33    34   ar
    30    34    35   ar
    31    35    36   ar
    32    36    37   ar
    33     7     8   ar
    34     8     9   ar
    35     9    10   ar
    36    17    11   ar
    37    10     1   ar
    38    24    18   ar
    39    10     5   ar
    40    37    32   ar
    41    30    31    1
@<TRIPOS>MOLECULE
*****
 37 41 0 0 0
SMALL
GASTEIGER

@<TRIPOS>ATOM
      1 C          64.1113   90.2224   15.1875 C.ar    1  UNL1        0.0842
      2 N          63.5677   90.9894   16.3563 N.ar    1  UNL1       -0.2437
      3 C          62.9586   90.2578   17.5155 C.ar    1  UNL1        0.0988
      4 C          62.8932   88.7593   17.5058 C.ar    1  UNL1        0.0207
      5 C          63.4368   87.9923   16.3370 C.ar    1  UNL1        0.0043
      6 C          63.3714   86.4938   16.3273 C.ar    1  UNL1        0.0203
      7 C          63.9150   85.7268   15.1585 C.ar    1  UNL1        0.1253
      8 C          64.5241   86.4584   13.9992 C.ar    1  UNL1        0.0202
      9 C          64.5895   87.9570   14.0089 C.ar    1  UNL1        0.0029
     10 C          64.0459   88.7239   15.1778 C.ar    1  UNL1        0.0179
     11 C          66.0637   91.6054   14.1746 C.ar    1  UNL1        0.1401
     12 C          66.6728   92.3369   13.0154 C.ar    1  UNL1        0.0378
     13 C          65.9387   92.4172   11.7097 C.ar    1  UNL1        0.0137
     14 C          64.5954   91.7659   11.5634 C.ar    1  UNL1        0.0579
     15 CL         63.8612   91.8462   10.2578 Cl      1  UNL1       -0.0822
     16 C          63.9863   91.0343   12.7226 C.ar    1  UNL1        0.0159
     17 C          64.7204   90.9540   14.0282 C.ar    1  UNL1        0.0524
     18 C          66.5478   93.1488   10.5506 C.ar    1  UNL1        0.0031
     19 C          67.6230   92.4962    9.7333 C.ar    1  UNL1        0.0002
     20 C          68.2322   93.2278    8.5740 C.ar    1  UNL1        0.0023
     21 C          67.7661   94.6119    8.2321 C.ar    1  UNL1        0.0296
     22 C          66.6908   95.2645    9.0495 C.ar    1  UNL1        0.1401
     23 F          66.2247   96.6486    8.7076 F       1  UNL1       -0.2042
     24 C          66.0817   94.5329   10.2087 C.ar    1  UNL1        0.0297
     25 C          67.3115   92.7757   16.1299 C.3     1  UNL1        0.2525
     26 O          66.7979   91.5251   15.4802 O.3     1  UNL1       -0.4714
     27 S          63.8495   84.2283   15.1488 S.O2    1  UNL1        0.0758
     28 O          65.2680   84.1695   14.6644 O.2     1  UNL1       -0.1499
     29 O          62.4311   84.2871   15.6332 O.2     1  UNL1       -0.1499
     30 N          63.7841   82.7297   15.1392 N.pl3   1  UNL1       -0.1835
     31 H          63.9625   82.2239   15.9647 H       1  UNL1        0.1767
     32 C          63.4468   82.0019   13.8716 C.ar    1  UNL1        0.2360
     33 N          63.6377   82.6769   12.5457 N.ar    1  UNL1       -0.2110
     34 C          63.3004   81.9491   11.2783 C.ar    1  UNL1        0.1035
     35 C          62.7723   80.5463   11.3366 C.ar    1  UNL1        0.0414
     36 C          62.5814   79.8714   12.6625 C.ar    1  UNL1        0.1035
     37 N          62.9187   80.5992   13.9301 N.ar    1  UNL1       -0.2110
@<TRIPOS>BOND
     1    25    26    1
     2    26    11    1
     3    11    12   ar
     4    12    13   ar
     5    13    18    1
     6    18    19   ar
     7    19    20   ar
     8    20    21   ar
     9    21    22   ar
    10    22    23    1
    11    22    24   ar
    12    13    14   ar
    13    14    15    1
    14    14    16   ar
    15    16    17   ar
    16    17     1    1
    17     1     2   ar
    18     2     3   ar
    19     3     4   ar
    20     4     5   ar
    21     5     6   ar
    22     6     7   ar
    23     7    27    1
    24    27    28    2
    25    27    29    2
    26    27    30    1
    27    30    32    1
    28    32    33   ar
    29    33    34   ar
    30    34    35   ar
    31    35    36   ar
    32    36    37   ar
    33     7     8   ar
    34     8     9   ar
    35     9    10   ar
    36    17    11   ar
    37    10     1   ar
    38    24    18   ar
    39    10     5   ar
    40    37    32   ar
    41    30    31    1
