@<TRIPOS>MOLECULE
*****
 15 17 0 0 0
SMALL
GASTEIGER

@<TRIPOS>ATOM
      1 C          64.9823   92.0746   12.8173 C.3     1  UNL1        0.2210
      2 C          66.1331   92.4521   13.7024 C.3     1  UNL1        0.0983
      3 C          67.4261   91.7033   13.8347 C.3     1  UNL1        0.0209
      4 C          68.2850   92.4330   14.8247 C.3     1  UNL1        0.0172
      5 C          68.9005   93.3597   15.8308 C.3     1  UNL1        0.0171
      6 C          67.5228   93.6327   15.3040 C.3     1  UNL1        0.0541
      7 N          66.1928   93.6445   14.6104 N.3     1  UNL1       -0.2966
      8 H          66.0947   94.5005   14.0646 H       1  UNL1        0.1233
      9 O          65.1837   91.9539   11.3358 O.3     1  UNL1       -0.4724
     10 C          68.2582   93.3682    9.2627 C.ar    1  UNL1        0.0238
     11 C          67.9076   94.8250    9.1940 C.ar    1  UNL1        0.0991
     12 N          66.6490   95.3248    9.8392 N.ar    1  UNL1       -0.2391
     13 C          65.7411   94.3678   10.5532 C.ar    1  UNL1        0.1356
     14 C          66.0917   92.9110   10.6219 C.ar    1  UNL1        0.1577
     15 C          67.3502   92.4112    9.9766 C.ar    1  UNL1        0.0401
@<TRIPOS>BOND
     1    10    11   ar
     2    11    12   ar
     3    12    13   ar
     4    13    14   ar
     5    14     9    1
     6     9     1    1
     7     2     1    1
     8     2     3    1
     9     4     3    1
    10     4     5    1
    11     6     5    1
    12     6     7    1
    13    14    15   ar
    14    15    10   ar
    15     7     2    1
    16     6     4    1
    17     7     8    1
@<TRIPOS>MOLECULE
*****
 15 17 0 0 0
SMALL
GASTEIGER

@<TRIPOS>ATOM
      1 C          64.5902   91.4782   12.6453 C.3     1  UNL1        0.2210
      2 C          64.1648   90.7391   13.8794 C.3     1  UNL1        0.0983
      3 C          64.2508   89.2569   14.0930 C.3     1  UNL1        0.0209
      4 C          63.7179   88.9542   15.4621 C.3     1  UNL1        0.0172
      5 C          63.1418   88.9617   16.8471 C.3     1  UNL1        0.0171
      6 C          63.3025   90.2494   16.0946 C.3     1  UNL1        0.0541
      7 N          63.5787   91.3525   15.1165 N.3     1  UNL1       -0.2966
      8 H          64.2399   92.0159   15.5205 H       1  UNL1        0.1233
      9 O          65.1693   92.8572   12.7592 O.3     1  UNL1       -0.4724
     10 C          67.5879   92.9919    9.6156 C.ar    1  UNL1        0.0238
     11 C          67.7980   94.4711    9.4827 C.ar    1  UNL1        0.0991
     12 N          67.1318   95.4124   10.4420 N.ar    1  UNL1       -0.2391
     13 C          66.2556   94.8745   11.5342 C.ar    1  UNL1        0.1356
     14 C          66.0455   93.3952   11.6670 C.ar    1  UNL1        0.1577
     15 C          66.7117   92.4540   10.7077 C.ar    1  UNL1        0.0401
@<TRIPOS>BOND
     1    10    11   ar
     2    11    12   ar
     3    12    13   ar
     4    13    14   ar
     5    14     9    1
     6     9     1    1
     7     2     1    1
     8     2     3    1
     9     4     3    1
    10     4     5    1
    11     6     5    1
    12     6     7    1
    13    14    15   ar
    14    15    10   ar
    15     7     2    1
    16     6     4    1
    17     7     8    1
@<TRIPOS>MOLECULE
*****
 15 17 0 0 0
SMALL
GASTEIGER

@<TRIPOS>ATOM
      1 C          65.3218   92.4149   12.3628 C.3     1  UNL1        0.2210
      2 C          66.3337   92.6310   13.4488 C.3     1  UNL1        0.0983
      3 C          67.6400   91.9079   13.5933 C.3     1  UNL1        0.0209
      4 C          68.3306   92.4381   14.8148 C.3     1  UNL1        0.0172
      5 C          68.7672   93.1506   16.0605 C.3     1  UNL1        0.0171
      6 C          67.4511   93.4889   15.4252 C.3     1  UNL1        0.0541
      7 N          66.2170   93.6081   14.5809 N.3     1  UNL1       -0.2966
      8 H          66.1395   94.5563   14.2132 H       1  UNL1        0.1233
      9 O          63.9381   91.9505   12.7085 O.3     1  UNL1       -0.4724
     10 C          62.2437   89.4004   10.1834 C.ar    1  UNL1        0.0238
     11 C          62.3475   88.1213   10.9600 C.ar    1  UNL1        0.0991
     12 N          62.9816   88.1186   12.3194 N.ar    1  UNL1       -0.2391
     13 C          63.5117   89.3949   12.9023 C.ar    1  UNL1        0.1356
     14 C          63.4079   90.6740   12.1257 C.ar    1  UNL1        0.1577
     15 C          62.7739   90.6767   10.7663 C.ar    1  UNL1        0.0401
@<TRIPOS>BOND
     1    10    11   ar
     2    11    12   ar
     3    12    13   ar
     4    13    14   ar
     5    14     9    1
     6     9     1    1
     7     2     1    1
     8     2     3    1
     9     4     3    1
    10     4     5    1
    11     6     5    1
    12     6     7    1
    13    14    15   ar
    14    15    10   ar
    15     7     2    1
    16     6     4    1
    17     7     8    1
@<TRIPOS>MOLECULE
*****
 15 17 0 0 0
SMALL
GASTEIGER

@<TRIPOS>ATOM
      1 C          62.5604   84.8431   16.2093 C.3     1  UNL1        0.2210
      2 C          62.6027   83.8894   15.0522 C.3     1  UNL1        0.0983
      3 C          62.7763   84.2610   13.6094 C.3     1  UNL1        0.0209
      4 C          62.7598   82.9979   12.8002 C.3     1  UNL1        0.0172
      5 C          62.7045   81.5960   12.2697 C.3     1  UNL1        0.0171
      6 C          62.5760   81.8458   13.7432 C.3     1  UNL1        0.0541
      7 N          62.4789   82.3968   15.1349 N.3     1  UNL1       -0.2966
      8 H          63.2314   82.0184   15.7102 H       1  UNL1        0.1233
      9 O          63.7337   85.7345   16.4898 O.3     1  UNL1       -0.4724
     10 C          64.3062   89.0040   14.3142 C.ar    1  UNL1        0.0238
     11 C          63.6527   90.0392   15.1809 C.ar    1  UNL1        0.0991
     12 N          63.0262   89.6395   16.4839 N.ar    1  UNL1       -0.2391
     13 C          63.0532   88.2047   16.9202 C.ar    1  UNL1        0.1356
     14 C          63.7067   87.1695   16.0535 C.ar    1  UNL1        0.1577
     15 C          64.3332   87.5691   14.7505 C.ar    1  UNL1        0.0401
@<TRIPOS>BOND
     1    10    11   ar
     2    11    12   ar
     3    12    13   ar
     4    13    14   ar
     5    14     9    1
     6     9     1    1
     7     2     1    1
     8     2     3    1
     9     4     3    1
    10     4     5    1
    11     6     5    1
    12     6     7    1
    13    14    15   ar
    14    15    10   ar
    15     7     2    1
    16     6     4    1
    17     7     8    1
@<TRIPOS>MOLECULE
*****
 15 17 0 0 0
SMALL
GASTEIGER

@<TRIPOS>ATOM
      1 C          63.3564   83.5299   14.8294 C.3     1  UNL1        0.2210
      2 C          63.5293   83.5296   13.3394 C.3     1  UNL1        0.0983
      3 C          62.6777   84.2722   12.3529 C.3     1  UNL1        0.0209
      4 C          63.2063   83.9882   10.9780 C.3     1  UNL1        0.0172
      5 C          63.9452   83.5289    9.7561 C.3     1  UNL1        0.0171
      6 C          64.3846   83.0700   11.1150 C.3     1  UNL1        0.0541
      7 N          64.5842   82.7866   12.5744 N.3     1  UNL1       -0.2966
      8 H          65.5095   83.1025   12.8649 H       1  UNL1        0.1233
      9 O          64.2247   84.4038   15.6851 O.3     1  UNL1       -0.4724
     10 C          64.2820   88.2615   14.7548 C.ar    1  UNL1        0.0238
     11 C          63.4651   88.8352   15.8743 C.ar    1  UNL1        0.0991
     12 N          62.9013   87.9318   16.9308 N.ar    1  UNL1       -0.2391
     13 C          63.1545   86.4547   16.8677 C.ar    1  UNL1        0.1356
     14 C          63.9715   85.8810   15.7482 C.ar    1  UNL1        0.1577
     15 C          64.5352   86.7844   14.6918 C.ar    1  UNL1        0.0401
@<TRIPOS>BOND
     1    10    11   ar
     2    11    12   ar
     3    12    13   ar
     4    13    14   ar
     5    14     9    1
     6     9     1    1
     7     2     1    1
     8     2     3    1
     9     4     3    1
    10     4     5    1
    11     6     5    1
    12     6     7    1
    13    14    15   ar
    14    15    10   ar
    15     7     2    1
    16     6     4    1
    17     7     8    1
@<TRIPOS>MOLECULE
*****
 15 17 0 0 0
SMALL
GASTEIGER

@<TRIPOS>ATOM
      1 C          62.8980   85.7576   12.2335 C.3     1  UNL1        0.2210
      2 C          61.9614   86.2025   11.1495 C.3     1  UNL1        0.0983
      3 C          62.0514   85.8305    9.6991 C.3     1  UNL1        0.0209
      4 C          60.9160   86.4955    8.9787 C.3     1  UNL1        0.0172
      5 C          59.7092   87.2723    8.5426 C.3     1  UNL1        0.0171
      6 C          60.1245   87.2786    9.9840 C.3     1  UNL1        0.0541
      7 N          60.7706   87.0974   11.3255 N.3     1  UNL1       -0.2966
      8 H          60.1090   86.6698   11.9734 H       1  UNL1        0.1233
      9 O          62.3909   84.9076   13.3605 O.3     1  UNL1       -0.4724
     10 C          62.8726   81.2575   11.8790 C.ar    1  UNL1        0.0238
     11 C          62.7047   80.4252   13.1155 C.ar    1  UNL1        0.0991
     12 N          62.4322   81.0870   14.4337 N.ar    1  UNL1       -0.2391
     13 C          62.3276   82.5811   14.5154 C.ar    1  UNL1        0.1356
     14 C          62.4955   83.4134   13.2789 C.ar    1  UNL1        0.1577
     15 C          62.7680   82.7516   11.9606 C.ar    1  UNL1        0.0401
@<TRIPOS>BOND
     1    10    11   ar
     2    11    12   ar
     3    12    13   ar
     4    13    14   ar
     5    14     9    1
     6     9     1    1
     7     2     1    1
     8     2     3    1
     9     4     3    1
    10     4     5    1
    11     6     5    1
    12     6     7    1
    13    14    15   ar
    14    15    10   ar
    15     7     2    1
    16     6     4    1
    17     7     8    1
@<TRIPOS>MOLECULE
*****
 15 17 0 0 0
SMALL
GASTEIGER

@<TRIPOS>ATOM
      1 C          66.0676   92.3727   12.8660 C.3     1  UNL1        0.2210
      2 C          66.5272   93.1444   11.6647 C.3     1  UNL1        0.0983
      3 C          67.0845   92.5591   10.4010 C.3     1  UNL1        0.0209
      4 C          67.4120   93.6899    9.4714 C.3     1  UNL1        0.0172
      5 C          67.6326   95.0003    8.7756 C.3     1  UNL1        0.0171
      6 C          67.0571   94.9741   10.1606 C.3     1  UNL1        0.0541
      7 N          66.5103   94.6370   11.5161 N.3     1  UNL1       -0.2966
      8 H          65.5541   94.9823   11.5993 H       1  UNL1        0.1233
      9 O          64.6023   92.1556   13.1024 O.3     1  UNL1       -0.4724
     10 C          62.6752   90.0375   10.3546 C.ar    1  UNL1        0.0238
     11 C          62.4791   88.7407   11.0824 C.ar    1  UNL1        0.0991
     12 N          62.9907   88.5821   12.4836 N.ar    1  UNL1       -0.2391
     13 C          63.6984   89.7204   13.1569 C.ar    1  UNL1        0.1356
     14 C          63.8946   91.0172   12.4291 C.ar    1  UNL1        0.1577
     15 C          63.3829   91.1758   11.0280 C.ar    1  UNL1        0.0401
@<TRIPOS>BOND
     1    10    11   ar
     2    11    12   ar
     3    12    13   ar
     4    13    14   ar
     5    14     9    1
     6     9     1    1
     7     2     1    1
     8     2     3    1
     9     4     3    1
    10     4     5    1
    11     6     5    1
    12     6     7    1
    13    14    15   ar
    14    15    10   ar
    15     7     2    1
    16     6     4    1
    17     7     8    1
@<TRIPOS>MOLECULE
*****
 15 17 0 0 0
SMALL
GASTEIGER

@<TRIPOS>ATOM
      1 C          62.0792   85.7767   11.5077 C.3     1  UNL1        0.2210
      2 C          62.2956   87.2340   11.2257 C.3     1  UNL1        0.0983
      3 C          62.0335   87.9280    9.9220 C.3     1  UNL1        0.0209
      4 C          62.3880   89.3761   10.0884 C.3     1  UNL1        0.0172
      5 C          62.8159   90.7385   10.5473 C.3     1  UNL1        0.0171
      6 C          62.8691   89.5769   11.4949 C.3     1  UNL1        0.0541
      7 N          62.8120   88.2530   12.1978 N.3     1  UNL1       -0.2966
      8 H          62.1857   88.3141   13.0006 H       1  UNL1        0.1233
      9 O          62.4800   85.2019   12.8340 O.3     1  UNL1       -0.4724
     10 C          62.9478   81.3606   11.9533 C.ar    1  UNL1        0.0238
     11 C          62.8991   80.7481   13.3216 C.ar    1  UNL1        0.0991
     12 N          62.7108   81.6201   14.5275 N.ar    1  UNL1       -0.2391
     13 C          62.5711   83.1047   14.3649 C.ar    1  UNL1        0.1356
     14 C          62.6197   83.7172   12.9966 C.ar    1  UNL1        0.1577
     15 C          62.8081   82.8451   11.7908 C.ar    1  UNL1        0.0401
@<TRIPOS>BOND
     1    10    11   ar
     2    11    12   ar
     3    12    13   ar
     4    13    14   ar
     5    14     9    1
     6     9     1    1
     7     2     1    1
     8     2     3    1
     9     4     3    1
    10     4     5    1
    11     6     5    1
    12     6     7    1
    13    14    15   ar
    14    15    10   ar
    15     7     2    1
    16     6     4    1
    17     7     8    1
@<TRIPOS>MOLECULE
*****
 15 17 0 0 0
SMALL
GASTEIGER

@<TRIPOS>ATOM
      1 C          64.0780   90.4563   13.8896 C.3     1  UNL1        0.2210
      2 C          63.4509   89.8012   12.6947 C.3     1  UNL1        0.0983
      3 C          63.0715   90.4827   11.4135 C.3     1  UNL1        0.0209
      4 C          62.4792   89.4523   10.4982 C.3     1  UNL1        0.0172
      5 C          61.9428   88.2260    9.8212 C.3     1  UNL1        0.0171
      6 C          62.4926   88.1341   11.2138 C.3     1  UNL1        0.0541
      7 N          63.0932   88.3497   12.5713 N.3     1  UNL1       -0.2966
      8 H          63.9308   87.7768   12.6743 H       1  UNL1        0.1233
      9 O          64.6218   91.8500   13.7816 O.3     1  UNL1       -0.4724
     10 C          67.6169   92.8334   16.1925 C.ar    1  UNL1        0.0238
     11 C          68.7779   92.7633   15.2454 C.ar    1  UNL1        0.0991
     12 N          68.5536   92.3887   13.8103 N.ar    1  UNL1       -0.2391
     13 C          67.1683   92.0843   13.3224 C.ar    1  UNL1        0.1356
     14 C          66.0072   92.1545   14.2695 C.ar    1  UNL1        0.1577
     15 C          66.2316   92.5290   15.7046 C.ar    1  UNL1        0.0401
@<TRIPOS>BOND
     1    10    11   ar
     2    11    12   ar
     3    12    13   ar
     4    13    14   ar
     5    14     9    1
     6     9     1    1
     7     2     1    1
     8     2     3    1
     9     4     3    1
    10     4     5    1
    11     6     5    1
    12     6     7    1
    13    14    15   ar
    14    15    10   ar
    15     7     2    1
    16     6     4    1
    17     7     8    1
