@<TRIPOS>MOLECULE
*****
 32 35 0 0 0
SMALL
GASTEIGER

@<TRIPOS>ATOM
      1 C          64.0220   89.8063   14.4531 C.3     1  UNL1        0.0732
      2 C          63.6246   90.3631   15.7880 C.3     1  UNL1        0.0197
      3 C          63.2030   89.4382   16.8911 C.3     1  UNL1        0.0031
      4 C          63.1788   87.9564   16.6592 C.3     1  UNL1        0.0161
      5 C          63.5763   87.3996   15.3243 C.3     1  UNL1        0.0592
      6 C          63.9979   88.3245   14.2213 C.3     1  UNL1        0.0355
      7 N          63.5522   85.9179   15.0924 N.3     1  UNL1       -0.2727
      8 C          63.3160   84.8659   16.1353 C.3     1  UNL1        0.0736
      9 C          63.3779   83.5258   15.4642 C.3     1  UNL1        0.0364
     10 C          63.6524   83.7495   14.0065 C.3     1  UNL1        0.0966
     11 C          63.7601   85.2279   13.7767 C.3     1  UNL1        0.0900
     12 N          63.7942   82.6823   12.9621 N.3     1  UNL1       -0.1579
     13 C          64.6392   82.9291   11.7475 C.3     1  UNL1        0.1145
     14 S          63.0912   81.3682   13.1323 S.O2    1  UNL1        0.0457
     15 C          62.3881   80.0542   13.3025 C.3     1  UNL1        0.1960
     16 O          64.2752   80.8315   13.8806 O.2     1  UNL1       -0.1572
     17 O          61.9071   81.9048   12.3840 O.2     1  UNL1       -0.1572
     18 C          65.7493   91.4637   13.4435 C.2     1  UNL1        0.2631
     19 O          66.6333   91.2711   14.6398 O.2     1  UNL1       -0.2685
     20 N          64.4436   90.7313   13.3501 N.am    1  UNL1       -0.3012
     21 H          63.8633   90.8578   12.5648 H       1  UNL1        0.1497
     22 C          65.6652   96.8517   10.9844 C.3     1  UNL1        0.0286
     23 C          66.4251   95.7326   10.3363 C.2     1  UNL1       -0.0178
     24 C          67.1701   95.9741    9.0570 C.2     1  UNL1       -0.0040
     25 C          67.9300   94.8550    8.4089 C.2     1  UNL1        0.0288
     26 C          67.9448   93.4942    9.0400 C.2     1  UNL1        0.1383
     27 F          68.7047   92.3751    8.3917 F       1  UNL1       -0.2044
     28 C          67.1997   93.2527   10.3192 C.2     1  UNL1        0.0327
     29 C          67.0335   92.0271   11.1679 C.2     1  UNL1        0.0235
     30 C          66.1710   92.3888   12.3405 C.2     1  UNL1        0.1296
     31 N          65.8040   93.8379   12.2166 N.2     1  UNL1       -0.2591
     32 C          66.4398   94.3719   10.9674 C.3     1  UNL1        0.1461
@<TRIPOS>BOND
     1    22    23    1
     2    23    24    2
     3    24    25    1
     4    25    26    2
     5    26    27    1
     6    26    28    1
     7    28    29    2
     8    29    30    1
     9    30    18    1
    10    18    19    2
    11    18    20   am
    12     1    20    1
    13     1     2    1
    14     2     3    1
    15     3     4    1
    16     4     5    1
    17     5     7    1
    18     7     8    1
    19     8     9    1
    20     9    10    1
    21    10    12    1
    22    12    13    1
    23    12    14    1
    24    14    15    1
    25    14    16    2
    26    14    17    2
    27    10    11    1
    28     5     6    1
    29    30    31    2
    30    31    32    1
    31    32    23    1
    32    32    28    1
    33     6     1    1
    34    11     7    1
    35    20    21    1
@<TRIPOS>MOLECULE
*****
 32 35 0 0 0
SMALL
GASTEIGER

@<TRIPOS>ATOM
      1 C          63.8277   88.6848   14.7193 C.3     1  UNL1        0.0732
      2 C          63.2688   88.8705   16.0988 C.3     1  UNL1        0.0197
      3 C          63.4530   90.1766   16.8131 C.3     1  UNL1        0.0031
      4 C          64.1961   91.2969   16.1479 C.3     1  UNL1        0.0161
      5 C          64.7550   91.1112   14.7684 C.3     1  UNL1        0.0592
      6 C          64.5708   89.8051   14.0541 C.3     1  UNL1        0.0355
      7 N          65.4981   92.2315   14.1031 N.3     1  UNL1       -0.2727
      8 C          66.3094   93.2856   14.7964 C.3     1  UNL1        0.0736
      9 C          66.8731   94.2000   13.7494 C.3     1  UNL1        0.0364
     10 C          66.4101   93.7110   12.4090 C.3     1  UNL1        0.0966
     11 C          65.5603   92.4944   12.6276 C.3     1  UNL1        0.0900
     12 N          66.7392   94.3300   11.0829 N.3     1  UNL1       -0.1579
     13 C          66.3599   95.7544   10.8053 C.3     1  UNL1        0.1145
     14 S          67.4476   93.5245   10.0344 S.O2    1  UNL1        0.0457
     15 C          68.1559   92.7189    8.9859 C.3     1  UNL1        0.1960
     16 O          68.0216   92.6402   11.1014 O.2     1  UNL1       -0.1572
     17 O          66.8735   94.4086    8.9673 O.2     1  UNL1       -0.1572
     18 C          63.6361   86.0945   14.7802 C.2     1  UNL1        0.2631
     19 O          63.8129   86.1165   16.2696 O.2     1  UNL1       -0.2685
     20 N          63.6434   87.3786   14.0050 N.am    1  UNL1       -0.3012
     21 H          63.5273   87.3642   13.0275 H       1  UNL1        0.1497
     22 C          64.4405   82.7537    9.9557 C.3     1  UNL1        0.0286
     23 C          63.7246   82.2005   11.1521 C.2     1  UNL1       -0.0178
     24 C          63.2072   80.7927   11.1319 C.2     1  UNL1       -0.0040
     25 C          62.4914   80.2395   12.3283 C.2     1  UNL1        0.0288
     26 C          62.2929   81.0941   13.5451 C.2     1  UNL1        0.1383
     27 F          61.5771   80.5408   14.7415 F       1  UNL1       -0.2044
     28 C          62.8104   82.5018   13.5653 C.2     1  UNL1        0.0327
     29 C          62.7644   83.5731   14.6143 C.2     1  UNL1        0.0235
     30 C          63.4518   84.7883   14.0661 C.2     1  UNL1        0.1296
     31 N          63.9227   84.4682   12.6784 N.2     1  UNL1       -0.2591
     32 C          63.5263   83.0550   12.3689 C.3     1  UNL1        0.1461
@<TRIPOS>BOND
     1    22    23    1
     2    23    24    2
     3    24    25    1
     4    25    26    2
     5    26    27    1
     6    26    28    1
     7    28    29    2
     8    29    30    1
     9    30    18    1
    10    18    19    2
    11    18    20   am
    12     1    20    1
    13     1     2    1
    14     2     3    1
    15     3     4    1
    16     4     5    1
    17     5     7    1
    18     7     8    1
    19     8     9    1
    20     9    10    1
    21    10    12    1
    22    12    13    1
    23    12    14    1
    24    14    15    1
    25    14    16    2
    26    14    17    2
    27    10    11    1
    28     5     6    1
    29    30    31    2
    30    31    32    1
    31    32    23    1
    32    32    28    1
    33     6     1    1
    34    11     7    1
    35    20    21    1
@<TRIPOS>MOLECULE
*****
 32 35 0 0 0
SMALL
GASTEIGER

@<TRIPOS>ATOM
      1 C          63.8647   88.3728   15.2283 C.3     1  UNL1        0.0732
      2 C          63.0826   88.8048   16.4331 C.3     1  UNL1        0.0197
      3 C          63.1563   90.2269   16.9048 C.3     1  UNL1        0.0031
      4 C          64.0121   91.2168   16.1717 C.3     1  UNL1        0.0161
      5 C          64.7942   90.7848   14.9668 C.3     1  UNL1        0.0592
      6 C          64.7205   89.3628   14.4952 C.3     1  UNL1        0.0355
      7 N          65.6500   91.7747   14.2336 N.3     1  UNL1       -0.2727
      8 C          66.7484   92.6035   14.8309 C.3     1  UNL1        0.0736
      9 C          67.3349   93.4506   13.7407 C.3     1  UNL1        0.0364
     10 C          66.5990   93.1453   12.4697 C.3     1  UNL1        0.0966
     11 C          65.5577   92.1095   12.7743 C.3     1  UNL1        0.0900
     12 N          66.8589   93.7667   11.1294 N.3     1  UNL1       -0.1579
     13 C          66.3541   95.1477   10.8324 C.3     1  UNL1        0.1145
     14 S          67.6236   93.0072   10.0862 S.O2    1  UNL1        0.0457
     15 C          68.3882   92.2477    9.0429 C.3     1  UNL1        0.1960
     16 O          66.9299   93.7878    9.0094 O.2     1  UNL1       -0.1572
     17 O          68.3173   92.2266   11.1630 O.2     1  UNL1       -0.1572
     18 C          63.2928   86.6436   13.3756 C.2     1  UNL1        0.2631
     19 O          62.8684   87.7584   12.4662 O.2     1  UNL1       -0.2685
     20 N          63.7909   86.9508   14.7567 N.am    1  UNL1       -0.3012
     21 H          64.0695   86.2191   15.3536 H       1  UNL1        0.1497
     22 C          61.5052   81.0628   14.2381 C.3     1  UNL1        0.0286
     23 C          62.2733   81.4324   13.0038 C.2     1  UNL1       -0.0178
     24 C          62.5935   80.3857   11.9782 C.2     1  UNL1       -0.0040
     25 C          63.3616   80.7552   10.7440 C.2     1  UNL1        0.0288
     26 C          63.8096   82.1715   10.5353 C.2     1  UNL1        0.1383
     27 F          64.5778   82.5410    9.3010 F       1  UNL1       -0.2044
     28 C          63.4895   83.2182   11.5609 C.2     1  UNL1        0.0327
     29 C          63.7970   84.6848   11.6281 C.2     1  UNL1        0.0235
     30 C          63.2190   85.2216   12.9039 C.2     1  UNL1        0.1296
     31 N          62.5542   84.0868   13.6252 N.2     1  UNL1       -0.2591
     32 C          62.7213   82.8486   12.7952 C.3     1  UNL1        0.1461
@<TRIPOS>BOND
     1    22    23    1
     2    23    24    2
     3    24    25    1
     4    25    26    2
     5    26    27    1
     6    26    28    1
     7    28    29    2
     8    29    30    1
     9    30    18    1
    10    18    19    2
    11    18    20   am
    12     1    20    1
    13     1     2    1
    14     2     3    1
    15     3     4    1
    16     4     5    1
    17     5     7    1
    18     7     8    1
    19     8     9    1
    20     9    10    1
    21    10    12    1
    22    12    13    1
    23    12    14    1
    24    14    15    1
    25    14    16    2
    26    14    17    2
    27    10    11    1
    28     5     6    1
    29    30    31    2
    30    31    32    1
    31    32    23    1
    32    32    28    1
    33     6     1    1
    34    11     7    1
    35    20    21    1
@<TRIPOS>MOLECULE
*****
 32 35 0 0 0
SMALL
GASTEIGER

@<TRIPOS>ATOM
      1 C          64.4765   89.8856   14.9238 C.3     1  UNL1        0.0732
      2 C          63.7617   90.2833   16.1811 C.3     1  UNL1        0.0197
      3 C          63.0819   89.2413   17.0191 C.3     1  UNL1        0.0031
      4 C          63.1170   87.8016   16.5998 C.3     1  UNL1        0.0161
      5 C          63.8318   87.4038   15.3425 C.3     1  UNL1        0.0592
      6 C          64.5115   88.4458   14.5045 C.3     1  UNL1        0.0355
      7 N          63.8670   85.9641   14.9231 N.3     1  UNL1       -0.2727
      8 C          64.1882   84.7958   15.8073 C.3     1  UNL1        0.0736
      9 C          64.1068   83.5495   14.9765 C.3     1  UNL1        0.0364
     10 C          63.7353   83.9476   13.5787 C.3     1  UNL1        0.0966
     11 C          63.5871   85.4400   13.5457 C.3     1  UNL1        0.0900
     12 N          63.5453   83.0169   12.4179 N.3     1  UNL1       -0.1579
     13 C          63.3320   81.5517   12.6584 C.3     1  UNL1        0.1145
     14 S          63.5687   83.5513   11.0165 S.O2    1  UNL1        0.0457
     15 C          63.5920   84.0857    9.6151 C.3     1  UNL1        0.1960
     16 O          62.2025   84.1372   11.2170 O.2     1  UNL1       -0.1572
     17 O          64.9349   82.9654   10.8159 O.2     1  UNL1       -0.1572
     18 C          64.6990   91.1737   12.6786 C.2     1  UNL1        0.2631
     19 O          63.5623   90.3777   12.1093 O.2     1  UNL1       -0.2685
     20 N          65.1562   90.9277   14.0858 N.am    1  UNL1       -0.3012
     21 H          65.9023   91.4501   14.4595 H       1  UNL1        0.1497
     22 C          68.6949   92.5938    8.5433 C.3     1  UNL1        0.0286
     23 C          67.8540   93.6577    9.1843 C.2     1  UNL1       -0.0178
     24 C          68.0221   95.0921    8.7790 C.2     1  UNL1       -0.0040
     25 C          67.1813   96.1560    9.4200 C.2     1  UNL1        0.0288
     26 C          66.1722   95.7856   10.4663 C.2     1  UNL1        0.1383
     27 F          65.3313   96.8496   11.1072 F       1  UNL1       -0.2044
     28 C          66.0041   94.3512   10.8715 C.2     1  UNL1        0.0327
     29 C          65.0978   93.6890   11.8666 C.2     1  UNL1        0.0235
     30 C          65.3787   92.2158   11.8405 C.2     1  UNL1        0.1296
     31 N          66.4585   91.9674   10.8294 N.2     1  UNL1       -0.2591
     32 C          66.8450   93.2873   10.2305 C.3     1  UNL1        0.1461
@<TRIPOS>BOND
     1    22    23    1
     2    23    24    2
     3    24    25    1
     4    25    26    2
     5    26    27    1
     6    26    28    1
     7    28    29    2
     8    29    30    1
     9    30    18    1
    10    18    19    2
    11    18    20   am
    12     1    20    1
    13     1     2    1
    14     2     3    1
    15     3     4    1
    16     4     5    1
    17     5     7    1
    18     7     8    1
    19     8     9    1
    20     9    10    1
    21    10    12    1
    22    12    13    1
    23    12    14    1
    24    14    15    1
    25    14    16    2
    26    14    17    2
    27    10    11    1
    28     5     6    1
    29    30    31    2
    30    31    32    1
    31    32    23    1
    32    32    28    1
    33     6     1    1
    34    11     7    1
    35    20    21    1
@<TRIPOS>MOLECULE
*****
 32 35 0 0 0
SMALL
GASTEIGER

@<TRIPOS>ATOM
      1 C          62.1968   88.3642   11.2050 C.3     1  UNL1        0.0732
      2 C          61.1304   88.7405   10.2196 C.3     1  UNL1        0.0197
      3 C          61.0928   90.1268    9.6480 C.3     1  UNL1        0.0031
      4 C          62.1217   91.1368   10.0618 C.3     1  UNL1        0.0161
      5 C          63.1881   90.7605   11.0472 C.3     1  UNL1        0.0592
      6 C          63.2257   89.3742   11.6188 C.3     1  UNL1        0.0355
      7 N          64.2171   91.7704   11.4611 N.3     1  UNL1       -0.2727
      8 C          64.9662   91.7842   12.7606 C.3     1  UNL1        0.0736
      9 C          65.8897   92.9662   12.7508 C.3     1  UNL1        0.0364
     10 C          65.7112   93.6830   11.4451 C.3     1  UNL1        0.0966
     11 C          64.6775   92.9439   10.6481 C.3     1  UNL1        0.0900
     12 N          66.4388   94.9213   11.0125 N.3     1  UNL1       -0.1579
     13 C          66.4858   96.1178   11.9160 C.3     1  UNL1        0.1145
     14 S          67.1194   94.9632    9.6765 S.O2    1  UNL1        0.0457
     15 C          67.8000   95.0051    8.3405 C.3     1  UNL1        0.1960
     16 O          68.0806   93.9060   10.1329 O.2     1  UNL1       -0.1572
     17 O          66.1582   96.0204    9.2200 O.2     1  UNL1       -0.1572
     18 C          62.5153   85.8058   10.8834 C.2     1  UNL1        0.2631
     19 O          62.7588   86.0203    9.4190 O.2     1  UNL1       -0.2685
     20 N          62.2343   86.9778   11.7765 N.am    1  UNL1       -0.3012
     21 H          62.0745   86.8371   12.7377 H       1  UNL1        0.1497
     22 C          62.9504   79.9553   10.0670 C.3     1  UNL1        0.0286
     23 C          62.7967   80.5203   11.4480 C.2     1  UNL1       -0.0178
     24 C          62.7524   79.6022   12.6333 C.2     1  UNL1       -0.0040
     25 C          62.5987   80.1672   14.0142 C.2     1  UNL1        0.0288
     26 C          62.4893   81.6504   14.2100 C.2     1  UNL1        0.1383
     27 F          62.3356   82.2154   15.5910 F       1  UNL1       -0.2044
     28 C          62.5337   82.5685   13.0246 C.2     1  UNL1        0.0327
     29 C          62.4505   84.0617   12.9080 C.2     1  UNL1        0.0235
     30 C          62.5528   84.4194   11.4549 C.2     1  UNL1        0.1296
     31 N          62.6992   83.1474   10.6734 N.2     1  UNL1       -0.2591
     32 C          62.6874   82.0035   11.6436 C.3     1  UNL1        0.1461
@<TRIPOS>BOND
     1    22    23    1
     2    23    24    2
     3    24    25    1
     4    25    26    2
     5    26    27    1
     6    26    28    1
     7    28    29    2
     8    29    30    1
     9    30    18    1
    10    18    19    2
    11    18    20   am
    12     1    20    1
    13     1     2    1
    14     2     3    1
    15     3     4    1
    16     4     5    1
    17     5     7    1
    18     7     8    1
    19     8     9    1
    20     9    10    1
    21    10    12    1
    22    12    13    1
    23    12    14    1
    24    14    15    1
    25    14    16    2
    26    14    17    2
    27    10    11    1
    28     5     6    1
    29    30    31    2
    30    31    32    1
    31    32    23    1
    32    32    28    1
    33     6     1    1
    34    11     7    1
    35    20    21    1
@<TRIPOS>MOLECULE
*****
 32 35 0 0 0
SMALL
GASTEIGER

@<TRIPOS>ATOM
      1 C          61.7974   87.9944   11.1190 C.3     1  UNL1        0.0732
      2 C          60.6403   88.4609   10.2861 C.3     1  UNL1        0.0197
      3 C          60.5607   89.8934    9.8484 C.3     1  UNL1        0.0031
      4 C          61.6381   90.8594   10.2434 C.3     1  UNL1        0.0161
      5 C          62.7951   90.3929   11.0763 C.3     1  UNL1        0.0592
      6 C          62.8747   88.9604   11.5141 C.3     1  UNL1        0.0355
      7 N          63.8725   91.3588   11.4714 N.3     1  UNL1       -0.2727
      8 C          64.4850   91.4871   12.8346 C.3     1  UNL1        0.0736
      9 C          65.5177   92.5737   12.7784 C.3     1  UNL1        0.0364
     10 C          65.5433   93.1169   11.3803 C.3     1  UNL1        0.0966
     11 C          64.5265   92.3660   10.5726 C.3     1  UNL1        0.0900
     12 N          66.4301   94.2176   10.8783 N.3     1  UNL1       -0.1579
     13 C          66.4157   95.5581   11.5511 C.3     1  UNL1        0.1145
     14 S          67.3312   93.9777    9.7034 S.O2    1  UNL1        0.0457
     15 C          68.2323   93.7379    8.5285 C.3     1  UNL1        0.1960
     16 O          68.0109   92.8691   10.4509 O.2     1  UNL1       -0.1572
     17 O          66.6515   95.0864    8.9557 O.2     1  UNL1       -0.1572
     18 C          62.4027   85.5184   10.6161 C.2     1  UNL1        0.2631
     19 O          62.8488   85.9074    9.2379 O.2     1  UNL1       -0.2685
     20 N          61.8769   86.5619   11.5567 N.am    1  UNL1       -0.3012
     21 H          61.5841   86.3065   12.4613 H       1  UNL1        0.1497
     22 C          62.0837   81.4703   14.9284 C.3     1  UNL1        0.0286
     23 C          62.3787   81.0556   13.5173 C.2     1  UNL1       -0.0178
     24 C          62.5951   79.6076   13.1908 C.2     1  UNL1       -0.0040
     25 C          62.8901   79.1930   11.7799 C.2     1  UNL1        0.0288
     26 C          62.9687   80.2262   10.6953 C.2     1  UNL1        0.1383
     27 F          63.2637   79.8114    9.2842 F       1  UNL1       -0.2044
     28 C          62.7522   81.6741   11.0218 C.2     1  UNL1        0.0327
     29 C          62.7677   82.9084   10.1695 C.2     1  UNL1        0.0235
     30 C          62.4823   84.0859   11.0538 C.2     1  UNL1        0.1296
     31 N          62.2904   83.5794   12.4526 N.2     1  UNL1       -0.2591
     32 C          62.4573   82.0888   12.4328 C.3     1  UNL1        0.1461
@<TRIPOS>BOND
     1    22    23    1
     2    23    24    2
     3    24    25    1
     4    25    26    2
     5    26    27    1
     6    26    28    1
     7    28    29    2
     8    29    30    1
     9    30    18    1
    10    18    19    2
    11    18    20   am
    12     1    20    1
    13     1     2    1
    14     2     3    1
    15     3     4    1
    16     4     5    1
    17     5     7    1
    18     7     8    1
    19     8     9    1
    20     9    10    1
    21    10    12    1
    22    12    13    1
    23    12    14    1
    24    14    15    1
    25    14    16    2
    26    14    17    2
    27    10    11    1
    28     5     6    1
    29    30    31    2
    30    31    32    1
    31    32    23    1
    32    32    28    1
    33     6     1    1
    34    11     7    1
    35    20    21    1
@<TRIPOS>MOLECULE
*****
 32 35 0 0 0
SMALL
GASTEIGER

@<TRIPOS>ATOM
      1 C          60.5316   88.9251    9.4839 C.3     1  UNL1        0.0732
      2 C          59.8992   87.5660    9.4286 C.3     1  UNL1        0.0197
      3 C          59.1285   87.1465    8.2120 C.3     1  UNL1        0.0031
      4 C          58.9901   88.0859    7.0509 C.3     1  UNL1        0.0161
      5 C          59.6225   89.4449    7.1063 C.3     1  UNL1        0.0592
      6 C          60.3933   89.8645    8.3228 C.3     1  UNL1        0.0355
      7 N          59.4842   90.3844    5.9452 N.3     1  UNL1       -0.2727
      8 C          58.2083   91.0088    5.4633 C.3     1  UNL1        0.0736
      9 C          58.5331   91.8748    4.2824 C.3     1  UNL1        0.0364
     10 C          60.0099   91.7857    4.0344 C.3     1  UNL1        0.0966
     11 C          60.5977   90.8646    5.0621 C.3     1  UNL1        0.0900
     12 N          60.7660   92.4934    2.9494 N.3     1  UNL1       -0.1579
     13 C          62.2580   92.3626    2.8669 C.3     1  UNL1        0.1145
     14 S          60.0301   93.3319    1.9467 S.O2    1  UNL1        0.0457
     15 C          59.2942   94.1704    0.9441 C.3     1  UNL1        0.1960
     16 O          60.0486   92.1882    0.9765 O.2     1  UNL1       -0.1572
     17 O          60.0115   94.4757    2.9169 O.2     1  UNL1       -0.1572
     18 C          62.4195   90.3377   10.5750 C.2     1  UNL1        0.2631
     19 O          62.7659   90.9112    9.2329 O.2     1  UNL1       -0.2685
     20 N          61.3024   89.3446   10.7005 N.am    1  UNL1       -0.3012
     21 H          61.0750   88.9681   11.5813 H       1  UNL1        0.1497
     22 C          63.2710   90.0565   16.4299 C.3     1  UNL1        0.0286
     23 C          64.1574   90.9113   15.5735 C.2     1  UNL1       -0.0178
     24 C          65.2682   91.7021   16.1987 C.2     1  UNL1       -0.0040
     25 C          66.1545   92.5569   15.3423 C.2     1  UNL1        0.0288
     26 C          65.9303   92.6210   13.8605 C.2     1  UNL1        0.1383
     27 F          66.8168   93.4759   13.0041 F       1  UNL1       -0.2044
     28 C          64.8196   91.8302   13.2353 C.2     1  UNL1        0.0327
     29 C          64.3605   91.6954   11.8136 C.2     1  UNL1        0.0235
     30 C          63.1903   90.7572   11.7915 C.2     1  UNL1        0.1296
     31 N          62.9262   90.3122   13.1994 N.2     1  UNL1       -0.2591
     32 C          63.9331   90.9754   14.0917 C.3     1  UNL1        0.1461
@<TRIPOS>BOND
     1    22    23    1
     2    23    24    2
     3    24    25    1
     4    25    26    2
     5    26    27    1
     6    26    28    1
     7    28    29    2
     8    29    30    1
     9    30    18    1
    10    18    19    2
    11    18    20   am
    12     1    20    1
    13     1     2    1
    14     2     3    1
    15     3     4    1
    16     4     5    1
    17     5     7    1
    18     7     8    1
    19     8     9    1
    20     9    10    1
    21    10    12    1
    22    12    13    1
    23    12    14    1
    24    14    15    1
    25    14    16    2
    26    14    17    2
    27    10    11    1
    28     5     6    1
    29    30    31    2
    30    31    32    1
    31    32    23    1
    32    32    28    1
    33     6     1    1
    34    11     7    1
    35    20    21    1
