@<TRIPOS>MOLECULE
*****
 25 28 0 0 0
SMALL
GASTEIGER

@<TRIPOS>ATOM
      1 N          63.6623   90.4355   13.0718 N.ar    1  UNL1       -0.3106
      2 C          64.4481   89.8650   14.2151 C.ar    1  UNL1        0.1215
      3 N          65.7825   90.5494   14.2475 N.ar    1  UNL1       -0.2309
      4 C          65.8214   91.5429   13.1243 C.ar    1  UNL1        0.0983
      5 C          66.8807   92.5024   12.6694 C.ar    1  UNL1        0.0206
      6 C          66.6297   93.3916   11.4878 C.ar    1  UNL1        0.0016
      7 C          65.3193   93.3212   10.7611 C.ar    1  UNL1        0.0016
      8 C          64.2600   92.3616   11.2161 C.ar    1  UNL1        0.0188
      9 C          64.5111   91.4725   12.3977 C.ar    1  UNL1        0.0789
     10 C          63.9815   88.7976   15.1600 C.3     1  UNL1        0.0729
     11 C          63.2834   89.1755   16.4327 C.3     1  UNL1        0.0103
     12 C          62.8167   88.1080   17.3776 C.3     1  UNL1        0.0178
     13 C          63.0482   86.6628   17.0498 C.3     1  UNL1        0.0722
     14 N          63.7463   86.2849   15.7771 N.3     1  UNL1       -0.2711
     15 C          63.9778   84.8395   15.4492 C.3     1  UNL1        0.0896
     16 C          64.2129   87.3523   14.8322 C.3     1  UNL1        0.0796
     17 C          62.2719   90.0387   12.6727 C.3     1  UNL1        0.1339
     18 C          61.6456   87.0679    9.3512 C.ar    1  UNL1        0.1387
     19 C          62.3885   86.6626   10.5898 C.ar    1  UNL1        0.0366
     20 C          62.5972   87.6529   11.6969 C.ar    1  UNL1        0.0007
     21 C          62.0631   89.0485   11.5656 C.ar    1  UNL1        0.0006
     22 C          61.3203   89.4537   10.3270 C.ar    1  UNL1        0.0007
     23 C          61.1116   88.4635    9.2199 C.ar    1  UNL1        0.0366
     24 C          60.0980   85.9707    7.5760 C.3     1  UNL1        0.2525
     25 O          61.4368   86.0777    8.2441 O.3     1  UNL1       -0.4714
@<TRIPOS>BOND
     1    24    25    1
     2    25    18    1
     3    18    19   ar
     4    19    20   ar
     5    20    21   ar
     6    21    17    1
     7    17     1    1
     8     1     2   ar
     9     2    10    1
    10    10    11    1
    11    11    12    1
    12    12    13    1
    13    13    14    1
    14    14    15    1
    15    14    16    1
    16     2     3   ar
    17     3     4   ar
    18     4     5   ar
    19     5     6   ar
    20     6     7   ar
    21     7     8   ar
    22     8     9   ar
    23    21    22   ar
    24    22    23   ar
    25    23    18   ar
    26     9     1   ar
    27    16    10    1
    28     9     4   ar
@<TRIPOS>MOLECULE
*****
 25 28 0 0 0
SMALL
GASTEIGER

@<TRIPOS>ATOM
      1 N          61.5305   87.9391   11.1121 N.ar    1  UNL1       -0.3106
      2 C          62.1246   86.5919   11.3985 C.ar    1  UNL1        0.1215
      3 N          61.7712   85.6785   10.2624 N.ar    1  UNL1       -0.2309
      4 C          60.9586   86.4611    9.2738 C.ar    1  UNL1        0.0983
      5 C          60.3349   86.0821    7.9634 C.ar    1  UNL1        0.0206
      6 C          59.5625   87.1002    7.1781 C.ar    1  UNL1        0.0016
      7 C          59.4137   88.4974    7.7033 C.ar    1  UNL1        0.0016
      8 C          60.0374   88.8764    9.0137 C.ar    1  UNL1        0.0188
      9 C          60.8098   87.8583    9.7990 C.ar    1  UNL1        0.0789
     10 C          62.9307   86.2229   12.6085 C.3     1  UNL1        0.0729
     11 C          63.6975   87.2780   13.3492 C.3     1  UNL1        0.0103
     12 C          64.5035   86.9090   14.5592 C.3     1  UNL1        0.0178
     13 C          64.5428   85.4849   15.0285 C.3     1  UNL1        0.0722
     14 N          63.7760   84.4297   14.2878 N.3     1  UNL1       -0.2711
     15 C          63.8153   83.0055   14.7570 C.3     1  UNL1        0.0896
     16 C          62.9700   84.7987   13.0778 C.3     1  UNL1        0.0796
     17 C          61.6381   89.1538   11.9854 C.3     1  UNL1        0.1339
     18 C          64.8056   92.2427   11.1635 C.ar    1  UNL1        0.1387
     19 C          63.8981   91.7869   10.0595 C.ar    1  UNL1        0.0366
     20 C          62.8423   90.7573   10.3335 C.ar    1  UNL1        0.0007
     21 C          62.6939   90.1834   11.7115 C.ar    1  UNL1        0.0006
     22 C          63.6013   90.6393   12.8155 C.ar    1  UNL1        0.0007
     23 C          64.6571   91.6689   12.5414 C.ar    1  UNL1        0.0366
     24 C          66.2389   94.2609   11.9528 C.3     1  UNL1        0.2525
     25 O          65.8614   93.2723   10.8895 O.3     1  UNL1       -0.4714
@<TRIPOS>BOND
     1    24    25    1
     2    25    18    1
     3    18    19   ar
     4    19    20   ar
     5    20    21   ar
     6    21    17    1
     7    17     1    1
     8     1     2   ar
     9     2    10    1
    10    10    11    1
    11    11    12    1
    12    12    13    1
    13    13    14    1
    14    14    15    1
    15    14    16    1
    16     2     3   ar
    17     3     4   ar
    18     4     5   ar
    19     5     6   ar
    20     6     7   ar
    21     7     8   ar
    22     8     9   ar
    23    21    22   ar
    24    22    23   ar
    25    23    18   ar
    26     9     1   ar
    27    16    10    1
    28     9     4   ar
@<TRIPOS>MOLECULE
*****
 25 28 0 0 0
SMALL
GASTEIGER

@<TRIPOS>ATOM
      1 N          64.0592   90.7723   14.4806 N.ar    1  UNL1       -0.3106
      2 C          63.7726   90.7642   13.0083 C.ar    1  UNL1        0.1215
      3 N          64.7564   91.6780   12.3396 N.ar    1  UNL1       -0.2309
      4 C          65.6510   92.2508   13.3986 C.ar    1  UNL1        0.0983
      5 C          66.8023   93.2097   13.3289 C.ar    1  UNL1        0.0206
      6 C          67.5227   93.6090   14.5825 C.ar    1  UNL1        0.0016
      7 C          67.0919   93.0492   15.9058 C.ar    1  UNL1        0.0016
      8 C          65.9406   92.0903   15.9755 C.ar    1  UNL1        0.0188
      9 C          65.2202   91.6911   14.7219 C.ar    1  UNL1        0.0789
     10 C          62.6919   89.9801   12.3247 C.3     1  UNL1        0.0729
     11 C          61.4085   90.6524   11.9367 C.3     1  UNL1        0.0103
     12 C          60.3278   89.8683   11.2531 C.3     1  UNL1        0.0178
     13 C          60.5306   88.4118   10.9576 C.3     1  UNL1        0.0722
     14 N          61.8141   87.7394   11.3455 N.3     1  UNL1       -0.2711
     15 C          62.0170   86.2828   11.0500 C.3     1  UNL1        0.0896
     16 C          62.8948   88.5236   12.0291 C.3     1  UNL1        0.0796
     17 C          63.3155   89.9977   15.5279 C.3     1  UNL1        0.1339
     18 C          63.9483   85.5595   15.9175 C.ar    1  UNL1        0.1387
     19 C          63.1250   86.2919   16.9353 C.ar    1  UNL1        0.0366
     20 C          62.9141   87.7713   16.8054 C.ar    1  UNL1        0.0007
     21 C          63.5264   88.5184   15.6578 C.ar    1  UNL1        0.0006
     22 C          64.3497   87.7859   14.6400 C.ar    1  UNL1        0.0007
     23 C          64.5606   86.3065   14.7700 C.ar    1  UNL1        0.0366
     24 C          63.9468   83.1853   14.8624 C.3     1  UNL1        0.2525
     25 O          64.1592   84.0801   16.0475 O.3     1  UNL1       -0.4714
@<TRIPOS>BOND
     1    24    25    1
     2    25    18    1
     3    18    19   ar
     4    19    20   ar
     5    20    21   ar
     6    21    17    1
     7    17     1    1
     8     1     2   ar
     9     2    10    1
    10    10    11    1
    11    11    12    1
    12    12    13    1
    13    13    14    1
    14    14    15    1
    15    14    16    1
    16     2     3   ar
    17     3     4   ar
    18     4     5   ar
    19     5     6   ar
    20     6     7   ar
    21     7     8   ar
    22     8     9   ar
    23    21    22   ar
    24    22    23   ar
    25    23    18   ar
    26     9     1   ar
    27    16    10    1
    28     9     4   ar
@<TRIPOS>MOLECULE
*****
 25 28 0 0 0
SMALL
GASTEIGER

@<TRIPOS>ATOM
      1 N          63.5236   87.8454   13.0697 N.ar    1  UNL1       -0.3106
      2 C          63.4822   89.3424   12.9846 C.ar    1  UNL1        0.1215
      3 N          62.7746   89.7151   11.7156 N.ar    1  UNL1       -0.2309
      4 C          62.3786   88.4484   11.0165 C.ar    1  UNL1        0.0983
      5 C          61.6563   88.1979    9.7260 C.ar    1  UNL1        0.0206
      6 C          61.3970   86.7919    9.2723 C.ar    1  UNL1        0.0016
      7 C          61.8600   85.6363   10.1093 C.ar    1  UNL1        0.0016
      8 C          62.5823   85.8868   11.3998 C.ar    1  UNL1        0.0188
      9 C          62.8416   87.2929   11.8534 C.ar    1  UNL1        0.0789
     10 C          64.0490   90.2988   13.9916 C.3     1  UNL1        0.0729
     11 C          63.5653   90.2671   15.4111 C.3     1  UNL1        0.0103
     12 C          64.1321   91.2235   16.4181 C.3     1  UNL1        0.0178
     13 C          65.1825   92.2117   16.0056 C.3     1  UNL1        0.0722
     14 N          65.6661   92.2434   14.5861 N.3     1  UNL1       -0.2711
     15 C          66.7165   93.2316   14.1736 C.3     1  UNL1        0.0896
     16 C          65.0994   91.2870   13.5791 C.3     1  UNL1        0.0796
     17 C          64.1391   87.0420   14.1769 C.3     1  UNL1        0.1339
     18 C          63.3323   82.6245   14.4683 C.ar    1  UNL1        0.1387
     19 C          62.4869   83.5938   15.2402 C.ar    1  UNL1        0.0366
     20 C          62.7558   85.0663   15.1430 C.ar    1  UNL1        0.0007
     21 C          63.8702   85.5695   14.2740 C.ar    1  UNL1        0.0006
     22 C          64.7155   84.6002   13.5022 C.ar    1  UNL1        0.0007
     23 C          64.4466   83.1277   13.5994 C.ar    1  UNL1        0.0366
     24 C          62.4422   80.4252   13.4096 C.3     1  UNL1        0.2525
     25 O          63.0633   81.1520   14.5655 O.3     1  UNL1       -0.4714
@<TRIPOS>BOND
     1    24    25    1
     2    25    18    1
     3    18    19   ar
     4    19    20   ar
     5    20    21   ar
     6    21    17    1
     7    17     1    1
     8     1     2   ar
     9     2    10    1
    10    10    11    1
    11    11    12    1
    12    12    13    1
    13    13    14    1
    14    14    15    1
    15    14    16    1
    16     2     3   ar
    17     3     4   ar
    18     4     5   ar
    19     5     6   ar
    20     6     7   ar
    21     7     8   ar
    22     8     9   ar
    23    21    22   ar
    24    22    23   ar
    25    23    18   ar
    26     9     1   ar
    27    16    10    1
    28     9     4   ar
@<TRIPOS>MOLECULE
*****
 25 28 0 0 0
SMALL
GASTEIGER

@<TRIPOS>ATOM
      1 N          61.6045   87.4768   10.9181 N.ar    1  UNL1       -0.3106
      2 C          62.0573   86.0480   10.8605 C.ar    1  UNL1        0.1215
      3 N          61.5385   85.4484    9.5871 N.ar    1  UNL1       -0.2309
      4 C          60.7652   86.5067    8.8578 C.ar    1  UNL1        0.0983
      5 C          60.0291   86.4908    7.5510 C.ar    1  UNL1        0.0206
      6 C          59.3338   87.7285    7.0668 C.ar    1  UNL1        0.0016
      7 C          59.3745   88.9822    7.8894 C.ar    1  UNL1        0.0016
      8 C          60.1106   88.9981    9.1962 C.ar    1  UNL1        0.0188
      9 C          60.8059   87.7604    9.6805 C.ar    1  UNL1        0.0789
     10 C          62.8837   85.3425   11.8946 C.3     1  UNL1        0.0729
     11 C          63.3094   83.9214   11.6729 C.3     1  UNL1        0.0103
     12 C          64.1358   83.2160   12.7070 C.3     1  UNL1        0.0178
     13 C          64.5366   83.9317   13.9628 C.3     1  UNL1        0.0722
     14 N          64.1109   85.3528   14.1845 N.3     1  UNL1       -0.2711
     15 C          64.5116   86.0685   15.4405 C.3     1  UNL1        0.0896
     16 C          63.2844   86.0582   13.1504 C.3     1  UNL1        0.0796
     17 C          61.8986   88.4512   12.0201 C.3     1  UNL1        0.1339
     18 C          64.5671   91.9900   11.2419 C.ar    1  UNL1        0.1387
     19 C          64.5944   91.3096   12.5785 C.ar    1  UNL1        0.0366
     20 C          63.7049   90.1300   12.8378 C.ar    1  UNL1        0.0007
     21 C          62.7881   89.6307   11.7607 C.ar    1  UNL1        0.0006
     22 C          62.7608   90.3112   10.4241 C.ar    1  UNL1        0.0007
     23 C          63.6503   91.4908   10.1648 C.ar    1  UNL1        0.0366
     24 C          66.1388   93.8604   12.1261 C.3     1  UNL1        0.2525
     25 O          65.4566   93.1696   10.9826 O.3     1  UNL1       -0.4714
@<TRIPOS>BOND
     1    24    25    1
     2    25    18    1
     3    18    19   ar
     4    19    20   ar
     5    20    21   ar
     6    21    17    1
     7    17     1    1
     8     1     2   ar
     9     2    10    1
    10    10    11    1
    11    11    12    1
    12    12    13    1
    13    13    14    1
    14    14    15    1
    15    14    16    1
    16     2     3   ar
    17     3     4   ar
    18     4     5   ar
    19     5     6   ar
    20     6     7   ar
    21     7     8   ar
    22     8     9   ar
    23    21    22   ar
    24    22    23   ar
    25    23    18   ar
    26     9     1   ar
    27    16    10    1
    28     9     4   ar
@<TRIPOS>MOLECULE
*****
 25 28 0 0 0
SMALL
GASTEIGER

@<TRIPOS>ATOM
      1 N          62.6586   85.4421   12.4420 N.ar    1  UNL1       -0.3106
      2 C          63.5656   86.2247   13.3447 C.ar    1  UNL1        0.1215
      3 N          64.3186   85.2512   14.2021 N.ar    1  UNL1       -0.2309
      4 C          63.8771   83.8670   13.8293 C.ar    1  UNL1        0.0983
      5 C          64.2767   82.5144   14.3398 C.ar    1  UNL1        0.0206
      6 C          63.6504   81.2798   13.7625 C.ar    1  UNL1        0.0016
      7 C          62.6244   81.3978   12.6746 C.ar    1  UNL1        0.0016
      8 C          62.2248   82.7504   12.1641 C.ar    1  UNL1        0.0188
      9 C          62.8511   83.9850   12.7414 C.ar    1  UNL1        0.0789
     10 C          63.6965   87.7185   13.3833 C.3     1  UNL1        0.0729
     11 C          64.3335   88.3852   14.5663 C.3     1  UNL1        0.0103
     12 C          64.4645   89.8790   14.6049 C.3     1  UNL1        0.0178
     13 C          63.9583   90.7061   13.4605 C.3     1  UNL1        0.0722
     14 N          63.3212   90.0393   12.2775 N.3     1  UNL1       -0.2711
     15 C          62.8150   90.8664   11.1330 C.3     1  UNL1        0.0896
     16 C          63.1903   88.5455   12.2389 C.3     1  UNL1        0.0796
     17 C          61.7233   86.0159   11.4192 C.3     1  UNL1        0.1339
     18 C          62.2635   85.0175    7.0648 C.ar    1  UNL1        0.1387
     19 C          63.3312   84.6572    8.0549 C.ar    1  UNL1        0.0366
     20 C          63.1511   84.9900    9.5064 C.ar    1  UNL1        0.0007
     21 C          61.9033   85.6832    9.9678 C.ar    1  UNL1        0.0006
     22 C          60.8358   86.0435    8.9776 C.ar    1  UNL1        0.0007
     23 C          61.0159   85.7106    7.5262 C.ar    1  UNL1        0.0366
     24 C          61.3998   83.8842    4.8922 C.3     1  UNL1        0.2525
     25 O          62.4436   84.6847    5.6133 O.3     1  UNL1       -0.4714
@<TRIPOS>BOND
     1    24    25    1
     2    25    18    1
     3    18    19   ar
     4    19    20   ar
     5    20    21   ar
     6    21    17    1
     7    17     1    1
     8     1     2   ar
     9     2    10    1
    10    10    11    1
    11    11    12    1
    12    12    13    1
    13    13    14    1
    14    14    15    1
    15    14    16    1
    16     2     3   ar
    17     3     4   ar
    18     4     5   ar
    19     5     6   ar
    20     6     7   ar
    21     7     8   ar
    22     8     9   ar
    23    21    22   ar
    24    22    23   ar
    25    23    18   ar
    26     9     1   ar
    27    16    10    1
    28     9     4   ar
@<TRIPOS>MOLECULE
*****
 25 28 0 0 0
SMALL
GASTEIGER

@<TRIPOS>ATOM
      1 N          62.7634   88.2377   12.4507 N.ar    1  UNL1       -0.3106
      2 C          62.2097   87.4100   11.3289 C.ar    1  UNL1        0.1215
      3 N          62.6600   85.9937   11.5319 N.ar    1  UNL1       -0.2309
      4 C          63.4920   85.9460   12.7791 C.ar    1  UNL1        0.0983
      5 C          64.1997   84.8189   13.4710 C.ar    1  UNL1        0.0206
      6 C          64.9712   85.0787   14.7308 C.ar    1  UNL1        0.0016
      7 C          65.0351   86.4656   15.2987 C.ar    1  UNL1        0.0016
      8 C          64.3275   87.5927   14.6068 C.ar    1  UNL1        0.0188
      9 C          63.5559   87.3329   13.3470 C.ar    1  UNL1        0.0789
     10 C          61.3556   87.9108   10.2021 C.3     1  UNL1        0.0729
     11 C          61.3108   89.3771    9.8893 C.3     1  UNL1        0.0103
     12 C          60.4567   89.8779    8.7624 C.3     1  UNL1        0.0178
     13 C          59.6475   88.9123    7.9483 C.3     1  UNL1        0.0722
     14 N          59.6923   87.4460    8.2611 N.3     1  UNL1       -0.2711
     15 C          58.8831   86.4804    7.4470 C.3     1  UNL1        0.0896
     16 C          60.5464   86.9452    9.3880 C.3     1  UNL1        0.0796
     17 C          62.5602   89.7114   12.6426 C.3     1  UNL1        0.1339
     18 C          65.9126   92.5793   11.7557 C.ar    1  UNL1        0.1387
     19 C          65.7906   91.9669   13.1196 C.ar    1  UNL1        0.0366
     20 C          64.6731   91.0110   13.4152 C.ar    1  UNL1        0.0007
     21 C          63.6776   90.6673   12.3470 C.ar    1  UNL1        0.0006
     22 C          63.7997   91.2798   10.9831 C.ar    1  UNL1        0.0007
     23 C          64.9172   92.2357   10.6875 C.ar    1  UNL1        0.0366
     24 C          67.2107   94.0714   10.0708 C.3     1  UNL1        0.2525
     25 O          67.0301   93.5353   11.4601 O.3     1  UNL1       -0.4714
@<TRIPOS>BOND
     1    24    25    1
     2    25    18    1
     3    18    19   ar
     4    19    20   ar
     5    20    21   ar
     6    21    17    1
     7    17     1    1
     8     1     2   ar
     9     2    10    1
    10    10    11    1
    11    11    12    1
    12    12    13    1
    13    13    14    1
    14    14    15    1
    15    14    16    1
    16     2     3   ar
    17     3     4   ar
    18     4     5   ar
    19     5     6   ar
    20     6     7   ar
    21     7     8   ar
    22     8     9   ar
    23    21    22   ar
    24    22    23   ar
    25    23    18   ar
    26     9     1   ar
    27    16    10    1
    28     9     4   ar
@<TRIPOS>MOLECULE
*****
 25 28 0 0 0
SMALL
GASTEIGER

@<TRIPOS>ATOM
      1 N          64.1442   90.1003   13.6129 N.ar    1  UNL1       -0.3106
      2 C          63.5281   90.4295   12.2855 C.ar    1  UNL1        0.1215
      3 N          64.3047   91.5622   11.6822 N.ar    1  UNL1       -0.2309
      4 C          65.4009   91.9329   12.6367 C.ar    1  UNL1        0.0983
      5 C          66.4764   92.9765   12.5735 C.ar    1  UNL1        0.0206
      6 C          67.4528   93.1166   13.7036 C.ar    1  UNL1        0.0016
      7 C          67.3536   92.2131   14.8968 C.ar    1  UNL1        0.0016
      8 C          66.2780   91.1695   14.9600 C.ar    1  UNL1        0.0188
      9 C          65.3017   91.0295   13.8300 C.ar    1  UNL1        0.0789
     10 C          62.3434   89.7461   11.6696 C.3     1  UNL1        0.0729
     11 C          62.4719   89.0850   10.3293 C.3     1  UNL1        0.0103
     12 C          61.2872   88.4016    9.7134 C.3     1  UNL1        0.0178
     13 C          59.9739   88.3794   10.4377 C.3     1  UNL1        0.0722
     14 N          59.8453   89.0405   11.7780 N.3     1  UNL1       -0.2711
     15 C          58.5320   89.0182   12.5024 C.3     1  UNL1        0.0896
     16 C          61.0301   89.7239   12.3939 C.3     1  UNL1        0.0796
     17 C          63.6838   89.0299   14.5575 C.3     1  UNL1        0.1339
     18 C          64.3725   84.6971   13.5564 C.ar    1  UNL1        0.1387
     19 C          65.0524   85.3094   14.7450 C.ar    1  UNL1        0.0366
     20 C          64.8228   86.7537   15.0787 C.ar    1  UNL1        0.0007
     21 C          63.9134   87.5857   14.2238 C.ar    1  UNL1        0.0006
     22 C          63.2335   86.9732   13.0351 C.ar    1  UNL1        0.0007
     23 C          63.4631   85.5290   12.7015 C.ar    1  UNL1        0.0366
     24 C          63.9566   82.6515   12.0095 C.3     1  UNL1        0.2525
     25 O          64.6021   83.2528   13.2227 O.3     1  UNL1       -0.4714
@<TRIPOS>BOND
     1    24    25    1
     2    25    18    1
     3    18    19   ar
     4    19    20   ar
     5    20    21   ar
     6    21    17    1
     7    17     1    1
     8     1     2   ar
     9     2    10    1
    10    10    11    1
    11    11    12    1
    12    12    13    1
    13    13    14    1
    14    14    15    1
    15    14    16    1
    16     2     3   ar
    17     3     4   ar
    18     4     5   ar
    19     5     6   ar
    20     6     7   ar
    21     7     8   ar
    22     8     9   ar
    23    21    22   ar
    24    22    23   ar
    25    23    18   ar
    26     9     1   ar
    27    16    10    1
    28     9     4   ar
@<TRIPOS>MOLECULE
*****
 25 28 0 0 0
SMALL
GASTEIGER

@<TRIPOS>ATOM
      1 N          62.8414   86.7445   12.0892 N.ar    1  UNL1       -0.3106
      2 C          63.5689   87.4159   13.2161 C.ar    1  UNL1        0.1215
      3 N          64.0844   86.3491   14.1359 N.ar    1  UNL1       -0.2309
      4 C          63.6756   85.0183   13.5775 C.ar    1  UNL1        0.0983
      5 C          63.9035   83.6156   14.0575 C.ar    1  UNL1        0.0206
      6 C          63.3633   82.4572   13.2725 C.ar    1  UNL1        0.0016
      7 C          62.5950   82.7016   12.0075 C.ar    1  UNL1        0.0016
      8 C          62.3671   84.1043   11.5276 C.ar    1  UNL1        0.0188
      9 C          62.9073   85.2626   12.3126 C.ar    1  UNL1        0.0789
     10 C          63.7492   88.8946   13.3923 C.3     1  UNL1        0.0729
     11 C          63.7748   89.7952   12.1930 C.3     1  UNL1        0.0103
     12 C          63.9551   91.2738   12.3691 C.3     1  UNL1        0.0178
     13 C          64.1098   91.8519   13.7446 C.3     1  UNL1        0.0722
     14 N          64.0842   90.9514   14.9438 N.3     1  UNL1       -0.2711
     15 C          64.2389   91.5295   16.3193 C.3     1  UNL1        0.0896
     16 C          63.9039   89.4727   14.7677 C.3     1  UNL1        0.0796
     17 C          62.1665   87.4338   10.9406 C.3     1  UNL1        0.1339
     18 C          61.2595   85.1553    7.1676 C.ar    1  UNL1        0.1387
     19 C          60.1634   85.8878    7.8832 C.ar    1  UNL1        0.0366
     20 C          60.4658   86.6473    9.1409 C.ar    1  UNL1        0.0007
     21 C          61.8642   86.6743    9.6830 C.ar    1  UNL1        0.0006
     22 C          62.9602   85.9418    8.9673 C.ar    1  UNL1        0.0007
     23 C          62.6578   85.1823    7.7096 C.ar    1  UNL1        0.0366
     24 C          62.0510   84.1129    4.9232 C.3     1  UNL1        0.2525
     25 O          60.9571   84.3959    5.9099 O.3     1  UNL1       -0.4714
@<TRIPOS>BOND
     1    24    25    1
     2    25    18    1
     3    18    19   ar
     4    19    20   ar
     5    20    21   ar
     6    21    17    1
     7    17     1    1
     8     1     2   ar
     9     2    10    1
    10    10    11    1
    11    11    12    1
    12    12    13    1
    13    13    14    1
    14    14    15    1
    15    14    16    1
    16     2     3   ar
    17     3     4   ar
    18     4     5   ar
    19     5     6   ar
    20     6     7   ar
    21     7     8   ar
    22     8     9   ar
    23    21    22   ar
    24    22    23   ar
    25    23    18   ar
    26     9     1   ar
    27    16    10    1
    28     9     4   ar
