@<TRIPOS>MOLECULE
*****
 47 52 0 0 0
SMALL
GASTEIGER

@<TRIPOS>ATOM
      1 N          60.1046   88.5587    8.9752 N.am    1  UNL1       -0.2735
      2 C          59.3555   88.3250    7.6969 C.2     1  UNL1        0.2492
      3 O          58.6988   87.0003    7.4438 O.2     1  UNL1       -0.2699
      4 C          59.2631   89.4160    6.6715 C.ar    1  UNL1        0.0567
      5 C          57.9389   90.0542    6.3727 C.ar    1  UNL1        0.0063
      6 C          57.8465   91.1451    5.3474 C.ar    1  UNL1        0.0225
      7 C          59.0783   91.5978    4.6209 C.ar    1  UNL1        0.1202
      8 N          59.2947   92.6427    3.5666 N.ar    1  UNL1       -0.1946
      9 C          60.7526   92.6502    3.2139 C.ar    1  UNL1        0.2924
     10 O          61.4372   91.6101    4.0501 O.2     1  UNL1       -0.4237
     11 C          60.4024   90.9596    4.9197 C.ar    1  UNL1        0.1662
     12 C          60.4948   89.8687    5.9450 C.ar    1  UNL1        0.0437
     13 N          61.4104   93.5415    2.2024 N.pl3   1  UNL1       -0.2636
     14 C          60.8446   94.8162    1.6500 C.3     1  UNL1        0.0951
     15 C          61.8341   95.3770    0.6720 C.3     1  UNL1        0.0233
     16 C          63.0114   94.4489    0.6200 C.3     1  UNL1        0.0233
     17 C          62.7495   93.3145    1.5659 C.3     1  UNL1        0.0951
     18 C          60.7613   89.8834    9.2283 C.3     1  UNL1        0.1245
     19 C          60.9069   90.3923   10.6319 C.3     1  UNL1        0.1484
     20 O          59.9368   90.8502   11.6802 O.3     1  UNL1       -0.3810
     21 H          60.4224   91.1106   12.4785 H       1  UNL1        0.2105
     22 C          62.2697   90.5210   11.2453 C.3     1  UNL1        0.1075
     23 O          63.4933   88.1902   12.4528 O.2     1  UNL1       -0.2264
     24 C          63.1907   88.7610   12.9199 C.2     1  UNL1        0.4020
     25 N          62.5031   90.0677   12.6560 N.am    1  UNL1       -0.2695
     26 H          62.2049   90.6279   13.4087 H       1  UNL1        0.1528
     27 O          63.4240   88.3077   14.3305 O.3     1  UNL1       -0.4291
     28 C          64.4924   87.2973   14.6266 C.3     1  UNL1        0.2447
     29 C          64.1197   85.8705   14.9017 C.ar    1  UNL1        0.0714
     30 C          63.0569   85.4044   15.8521 C.ar    1  UNL1        0.1053
     31 N          63.0247   83.9053   15.8125 N.ar    1  UNL1       -0.2350
     32 C          64.0677   83.4449   14.8377 C.ar    1  UNL1        0.1343
     33 S          64.7444   84.6595   14.2748 S.2     1  UNL1       -0.0652
     34 C          63.3991   91.1030   10.4480 C.3     1  UNL1        0.0485
     35 C          64.4160   91.9795   11.1172 C.ar    1  UNL1       -0.0204
     36 C          65.0827   93.0791   10.3450 C.ar    1  UNL1       -0.0042
     37 C          66.0996   93.9555   11.0142 C.ar    1  UNL1       -0.0003
     38 C          66.4497   93.7324   12.4556 C.ar    1  UNL1       -0.0000
     39 C          65.7830   92.6327   13.2277 C.ar    1  UNL1       -0.0003
     40 C          64.7661   91.7563   12.5585 C.ar    1  UNL1       -0.0042
     41 C          60.1970   87.4677   10.0006 C.3     1  UNL1        0.0937
     42 C          61.2791   86.4339    9.9002 C.3     1  UNL1        0.0199
     43 C          61.6676   85.6350   11.1089 C.3     1  UNL1        0.0017
     44 C          62.7498   84.6011   11.0085 C.3     1  UNL1        0.0001
     45 C          63.4434   84.3661    9.6994 C.3     1  UNL1        0.0000
     46 C          63.0549   85.1650    8.4908 C.3     1  UNL1        0.0001
     47 C          61.9727   86.1989    8.5912 C.3     1  UNL1        0.0017
@<TRIPOS>BOND
     1    23    24    2
     2    24    25   am
     3    25    22    1
     4    22    34    1
     5    34    35    1
     6    35    36   ar
     7    36    37   ar
     8    37    38   ar
     9    38    39   ar
    10    39    40   ar
    11    22    19    1
    12    19    20    1
    13    19    18    1
    14    18     1    1
    15     1    41    1
    16    41    42    1
    17    42    43    1
    18    43    44    1
    19    44    45    1
    20    45    46    1
    21    46    47    1
    22     1     2   am
    23     2     3    2
    24     2     4    1
    25     4     5   ar
    26     5     6   ar
    27     6     7   ar
    28     7     8   ar
    29     8     9   ar
    30     9    13    1
    31    13    14    1
    32    14    15    1
    33    15    16    1
    34    16    17    1
    35     9    10   ar
    36    10    11   ar
    37    11    12   ar
    38    24    27    1
    39    27    28    1
    40    28    29    1
    41    29    30   ar
    42    30    31   ar
    43    31    32   ar
    44    32    33   ar
    45    40    35   ar
    46    47    42    1
    47    12     4   ar
    48    33    29   ar
    49    11     7   ar
    50    17    13    1
    51    25    26    1
    52    20    21    1
@<TRIPOS>MOLECULE
*****
 47 52 0 0 0
SMALL
GASTEIGER

@<TRIPOS>ATOM
      1 N          63.8878   90.1060   14.5727 N.am    1  UNL1       -0.2735
      2 C          63.7818   89.3214   15.8467 C.2     1  UNL1        0.2492
      3 O          64.0529   89.9880   17.1628 O.2     1  UNL1       -0.2699
      4 C          63.4046   87.8701   15.8047 C.ar    1  UNL1        0.0567
      5 C          62.7436   87.2324   16.9905 C.ar    1  UNL1        0.0063
      6 C          62.3665   85.7812   16.9485 C.ar    1  UNL1        0.0225
      7 C          62.6504   84.9678   15.7206 C.ar    1  UNL1        0.1202
      8 N          62.3949   83.5271   15.3897 N.ar    1  UNL1       -0.1946
      9 C          62.8981   83.2746   13.9994 C.ar    1  UNL1        0.2924
     10 O          63.4645   84.5591   13.4710 O.2     1  UNL1       -0.4237
     11 C          63.3114   85.6055   14.5347 C.ar    1  UNL1        0.1662
     12 C          63.6886   87.0567   14.5768 C.ar    1  UNL1        0.0437
     13 N          62.8442   81.9671   13.2662 N.pl3   1  UNL1       -0.2636
     14 C          63.1279   81.7620   11.8075 C.3     1  UNL1        0.0951
     15 C          62.9562   80.3032   11.5028 C.3     1  UNL1        0.0233
     16 C          62.5666   79.6070   12.7730 C.3     1  UNL1        0.0233
     17 C          62.4974   80.6354   13.8628 C.3     1  UNL1        0.0951
     18 C          63.6167   89.4393   13.2566 C.3     1  UNL1        0.1245
     19 C          62.3438   89.7287   12.5175 C.3     1  UNL1        0.1484
     20 O          60.8986   89.7876   12.9146 O.3     1  UNL1       -0.3810
     21 H          60.3592   90.0109   12.1399 H       1  UNL1        0.2105
     22 C          62.3830   90.0444   11.0516 C.3     1  UNL1        0.1075
     23 O          64.1472   92.3019   11.4746 O.2     1  UNL1       -0.2264
     24 C          64.3207   91.7691   10.9076 C.2     1  UNL1        0.4020
     25 N          63.6596   90.5143   10.4194 N.am    1  UNL1       -0.2695
     26 H          64.0635   89.9990    9.6842 H       1  UNL1        0.1528
     27 O          65.5973   92.2390   10.2755 O.3     1  UNL1       -0.4291
     28 C          66.3623   93.3757   10.8858 C.3     1  UNL1        0.2447
     29 C          66.7442   94.5590   10.0465 C.ar    1  UNL1        0.0714
     30 C          67.3737   94.5085    8.6859 C.ar    1  UNL1        0.1053
     31 N          67.5822   95.9186    8.2190 N.ar    1  UNL1       -0.2350
     32 C          67.0815   96.8406    9.2911 C.ar    1  UNL1        0.1343
     33 S          66.5637   96.0003   10.4205 S.2     1  UNL1       -0.0652
     34 C          61.1456   89.8903   10.2179 C.3     1  UNL1        0.0485
     35 C          60.9197   88.6298    9.4368 C.ar    1  UNL1       -0.0204
     36 C          59.8548   88.5820    8.3815 C.ar    1  UNL1       -0.0042
     37 C          59.6289   87.3215    7.6004 C.ar    1  UNL1       -0.0003
     38 C          60.4679   86.1087    7.8746 C.ar    1  UNL1       -0.0000
     39 C          61.5328   86.1565    8.9299 C.ar    1  UNL1       -0.0003
     40 C          61.7587   87.4170    9.7110 C.ar    1  UNL1       -0.0042
     41 C          64.2650   91.5572   14.6147 C.3     1  UNL1        0.0937
     42 C          65.6994   91.9542   14.8009 C.3     1  UNL1        0.0199
     43 C          66.1121   92.7256   16.0194 C.3     1  UNL1        0.0017
     44 C          67.5465   93.1226   16.2056 C.3     1  UNL1        0.0001
     45 C          68.5684   92.7483   15.1732 C.3     1  UNL1        0.0000
     46 C          68.1557   91.9770   13.9546 C.3     1  UNL1        0.0001
     47 C          66.7212   91.5800   13.7685 C.3     1  UNL1        0.0017
@<TRIPOS>BOND
     1    23    24    2
     2    24    25   am
     3    25    22    1
     4    22    34    1
     5    34    35    1
     6    35    36   ar
     7    36    37   ar
     8    37    38   ar
     9    38    39   ar
    10    39    40   ar
    11    22    19    1
    12    19    20    1
    13    19    18    1
    14    18     1    1
    15     1    41    1
    16    41    42    1
    17    42    43    1
    18    43    44    1
    19    44    45    1
    20    45    46    1
    21    46    47    1
    22     1     2   am
    23     2     3    2
    24     2     4    1
    25     4     5   ar
    26     5     6   ar
    27     6     7   ar
    28     7     8   ar
    29     8     9   ar
    30     9    13    1
    31    13    14    1
    32    14    15    1
    33    15    16    1
    34    16    17    1
    35     9    10   ar
    36    10    11   ar
    37    11    12   ar
    38    24    27    1
    39    27    28    1
    40    28    29    1
    41    29    30   ar
    42    30    31   ar
    43    31    32   ar
    44    32    33   ar
    45    40    35   ar
    46    47    42    1
    47    12     4   ar
    48    33    29   ar
    49    11     7   ar
    50    17    13    1
    51    25    26    1
    52    20    21    1
@<TRIPOS>MOLECULE
*****
 47 52 0 0 0
SMALL
GASTEIGER

@<TRIPOS>ATOM
      1 N          64.5606   91.3619   12.8369 N.am    1  UNL1       -0.2735
      2 C          64.5719   91.0432   14.3025 C.2     1  UNL1        0.2492
      3 O          65.0005   92.0848   15.2932 O.2     1  UNL1       -0.2699
      4 C          64.1547   89.6830   14.7776 C.ar    1  UNL1        0.0567
      5 C          63.6152   89.5063   16.1660 C.ar    1  UNL1        0.0063
      6 C          63.1980   88.1461   16.6410 C.ar    1  UNL1        0.0225
      7 C          63.3202   86.9625   15.7276 C.ar    1  UNL1        0.1202
      8 N          62.9915   85.5111   15.9160 N.ar    1  UNL1       -0.1946
      9 C          63.3278   84.7908   14.6440 C.ar    1  UNL1        0.2924
     10 O          63.8644   85.7970   13.6695 O.2     1  UNL1       -0.4237
     11 C          63.8597   87.1392   14.3392 C.ar    1  UNL1        0.1662
     12 C          64.2769   88.4994   13.8642 C.ar    1  UNL1        0.0437
     13 N          63.1574   83.3221   14.3909 N.pl3   1  UNL1       -0.2636
     14 C          64.1968   82.3980   13.8288 C.3     1  UNL1        0.0951
     15 C          63.5995   81.0245   13.7459 C.3     1  UNL1        0.0233
     16 C          62.1912   81.0998   14.2567 C.3     1  UNL1        0.0233
     17 C          61.9180   82.5199   14.6553 C.3     1  UNL1        0.0951
     18 C          64.1320   90.3203   11.8462 C.3     1  UNL1        0.1245
     19 C          63.1628   90.6746   10.7575 C.3     1  UNL1        0.1484
     20 O          63.0406   91.8273    9.8055 O.3     1  UNL1       -0.3810
     21 H          62.2647   91.6973    9.2381 H       1  UNL1        0.2105
     22 C          62.0146   89.7600   10.4487 C.3     1  UNL1        0.1075
     23 O          59.7840   88.4019    9.1967 O.2     1  UNL1       -0.2264
     24 C          59.9855   89.1333    8.9520 C.2     1  UNL1        0.4020
     25 N          61.0494   90.1108    9.3554 N.am    1  UNL1       -0.2695
     26 H          61.1141   90.9826    8.9025 H       1  UNL1        0.1528
     27 O          59.0203   89.4840    7.8587 O.3     1  UNL1       -0.4291
     28 C          59.4462   89.3899    6.4236 C.3     1  UNL1        0.2447
     29 C          59.2864   90.5726    5.5147 C.ar    1  UNL1        0.0714
     30 C          57.9975   91.2688    5.1921 C.ar    1  UNL1        0.1053
     31 N          58.3019   92.3932    4.2470 N.ar    1  UNL1       -0.2350
     32 C          59.7790   92.3918    3.9855 C.ar    1  UNL1        0.1343
     33 S          60.3874   91.2666    4.7690 S.2     1  UNL1       -0.0652
     34 C          61.8316   88.4948   11.2333 C.3     1  UNL1        0.0485
     35 C          62.2148   87.1760   10.6299 C.ar    1  UNL1       -0.0204
     36 C          62.7797   87.1224    9.2414 C.ar    1  UNL1       -0.0042
     37 C          63.1629   85.8037    8.6379 C.ar    1  UNL1       -0.0003
     38 C          62.9812   84.5386    9.4230 C.ar    1  UNL1       -0.0000
     39 C          62.4163   84.5922   10.8115 C.ar    1  UNL1       -0.0003
     40 C          62.0331   85.9109   11.4149 C.ar    1  UNL1       -0.0042
     41 C          64.9779   92.7222   12.3618 C.3     1  UNL1        0.0937
     42 C          66.0785   92.8589   11.3518 C.3     1  UNL1        0.0199
     43 C          65.9752   93.8872   10.2647 C.3     1  UNL1        0.0017
     44 C          67.0758   94.0239    9.2547 C.3     1  UNL1        0.0001
     45 C          68.2797   93.1323    9.3319 C.3     1  UNL1        0.0000
     46 C          68.3829   92.1041   10.4191 C.3     1  UNL1        0.0001
     47 C          67.2822   91.9674   11.4291 C.3     1  UNL1        0.0017
@<TRIPOS>BOND
     1    23    24    2
     2    24    25   am
     3    25    22    1
     4    22    34    1
     5    34    35    1
     6    35    36   ar
     7    36    37   ar
     8    37    38   ar
     9    38    39   ar
    10    39    40   ar
    11    22    19    1
    12    19    20    1
    13    19    18    1
    14    18     1    1
    15     1    41    1
    16    41    42    1
    17    42    43    1
    18    43    44    1
    19    44    45    1
    20    45    46    1
    21    46    47    1
    22     1     2   am
    23     2     3    2
    24     2     4    1
    25     4     5   ar
    26     5     6   ar
    27     6     7   ar
    28     7     8   ar
    29     8     9   ar
    30     9    13    1
    31    13    14    1
    32    14    15    1
    33    15    16    1
    34    16    17    1
    35     9    10   ar
    36    10    11   ar
    37    11    12   ar
    38    24    27    1
    39    27    28    1
    40    28    29    1
    41    29    30   ar
    42    30    31   ar
    43    31    32   ar
    44    32    33   ar
    45    40    35   ar
    46    47    42    1
    47    12     4   ar
    48    33    29   ar
    49    11     7   ar
    50    17    13    1
    51    25    26    1
    52    20    21    1
@<TRIPOS>MOLECULE
*****
 47 52 0 0 0
SMALL
GASTEIGER

@<TRIPOS>ATOM
      1 N          59.9780   88.6808    8.8353 N.am    1  UNL1       -0.2735
      2 C          59.2194   88.4671    7.5591 C.2     1  UNL1        0.2492
      3 O          58.5264   87.1606    7.3082 O.2     1  UNL1       -0.2699
      4 C          59.1537   89.5599    6.5336 C.ar    1  UNL1        0.0567
      5 C          57.8441   90.2248    6.2290 C.ar    1  UNL1        0.0063
      6 C          57.7784   91.3176    5.2036 C.ar    1  UNL1        0.0225
      7 C          59.0224   91.7455    4.4828 C.ar    1  UNL1        0.1202
      8 N          59.2646   92.7860    3.4298 N.ar    1  UNL1       -0.1946
      9 C          60.7239   92.7641    3.0837 C.ar    1  UNL1        0.2924
     10 O          61.3836   91.7101    3.9227 O.2     1  UNL1       -0.4237
     11 C          60.3320   91.0806    4.7874 C.ar    1  UNL1        0.1662
     12 C          60.3976   89.9878    5.8128 C.ar    1  UNL1        0.0437
     13 N          61.4042   93.6421    2.0755 N.pl3   1  UNL1       -0.2636
     14 C          62.5979   93.2713    1.2462 C.3     1  UNL1        0.0951
     15 C          62.9417   94.4451    0.3778 C.3     1  UNL1        0.0233
     16 C          61.9605   95.5412    0.6704 C.3     1  UNL1        0.0233
     17 C          61.0102   95.0449    1.7197 C.3     1  UNL1        0.0951
     18 C          60.6710   89.9872    9.0861 C.3     1  UNL1        0.1245
     19 C          60.8893   90.4626   10.4920 C.3     1  UNL1        0.1484
     20 O          59.9741   90.8074   11.6294 O.3     1  UNL1       -0.3810
     21 H          60.5008   91.0816   12.3964 H       1  UNL1        0.2105
     22 C          62.2829   90.6827   11.0014 C.3     1  UNL1        0.1075
     23 O          63.2417   88.2330   12.2128 O.2     1  UNL1       -0.2264
     24 C          63.1206   88.8752   12.6692 C.2     1  UNL1        0.4020
     25 N          62.6446   90.2716   12.3980 N.am    1  UNL1       -0.2695
     26 H          62.5696   90.9183   13.1365 H       1  UNL1        0.1528
     27 O          63.4823   88.4641   14.0656 O.3     1  UNL1       -0.4291
     28 C          64.6904   89.0529   14.7317 C.3     1  UNL1        0.2447
     29 C          64.5887   90.3716   15.4394 C.ar    1  UNL1        0.0714
     30 C          63.4273   90.8425   16.2637 C.ar    1  UNL1        0.1053
     31 N          63.7512   92.2128   16.7809 N.ar    1  UNL1       -0.2350
     32 C          65.1129   92.5887   16.2762 C.ar    1  UNL1        0.1343
     33 S          65.6304   91.4508   15.4471 S.2     1  UNL1       -0.0652
     34 C          63.3147   91.3139   10.1144 C.3     1  UNL1        0.0485
     35 C          64.3655   92.2072   10.7041 C.ar    1  UNL1       -0.0204
     36 C          65.0714   91.8041   11.9647 C.ar    1  UNL1       -0.0042
     37 C          66.1222   92.6974   12.5544 C.ar    1  UNL1       -0.0003
     38 C          66.4671   93.9939   11.8835 C.ar    1  UNL1       -0.0000
     39 C          65.7612   94.3971   10.6230 C.ar    1  UNL1       -0.0003
     40 C          64.7104   93.5037   10.0333 C.ar    1  UNL1       -0.0042
     41 C          60.0438   87.5879    9.8607 C.3     1  UNL1        0.0937
     42 C          61.1414   86.5674    9.7999 C.3     1  UNL1        0.0199
     43 C          61.5158   85.7945   11.0297 C.3     1  UNL1        0.0017
     44 C          62.6135   84.7740   10.9689 C.3     1  UNL1        0.0001
     45 C          63.3368   84.5264    9.6783 C.3     1  UNL1        0.0000
     46 C          62.9623   85.2994    8.4485 C.3     1  UNL1        0.0001
     47 C          61.8646   86.3199    8.5094 C.3     1  UNL1        0.0017
@<TRIPOS>BOND
     1    23    24    2
     2    24    25   am
     3    25    22    1
     4    22    34    1
     5    34    35    1
     6    35    36   ar
     7    36    37   ar
     8    37    38   ar
     9    38    39   ar
    10    39    40   ar
    11    22    19    1
    12    19    20    1
    13    19    18    1
    14    18     1    1
    15     1    41    1
    16    41    42    1
    17    42    43    1
    18    43    44    1
    19    44    45    1
    20    45    46    1
    21    46    47    1
    22     1     2   am
    23     2     3    2
    24     2     4    1
    25     4     5   ar
    26     5     6   ar
    27     6     7   ar
    28     7     8   ar
    29     8     9   ar
    30     9    13    1
    31    13    14    1
    32    14    15    1
    33    15    16    1
    34    16    17    1
    35     9    10   ar
    36    10    11   ar
    37    11    12   ar
    38    24    27    1
    39    27    28    1
    40    28    29    1
    41    29    30   ar
    42    30    31   ar
    43    31    32   ar
    44    32    33   ar
    45    40    35   ar
    46    47    42    1
    47    12     4   ar
    48    33    29   ar
    49    11     7   ar
    50    17    13    1
    51    25    26    1
    52    20    21    1
@<TRIPOS>MOLECULE
*****
 47 52 0 0 0
SMALL
GASTEIGER

@<TRIPOS>ATOM
      1 N          61.8746   87.7788   10.8031 N.am    1  UNL1       -0.2735
      2 C          61.8687   89.1921   10.3006 C.2     1  UNL1        0.2492
      3 O          60.8440   89.6263    9.2949 O.2     1  UNL1       -0.2699
      4 C          62.8877   90.1712   10.8037 C.ar    1  UNL1        0.0567
      5 C          63.1983   91.4051   10.0094 C.ar    1  UNL1        0.0063
      6 C          64.2172   92.3842   10.5125 C.ar    1  UNL1        0.0225
      7 C          64.9255   92.1294   11.8100 C.ar    1  UNL1        0.1202
      8 N          65.9699   92.9085   12.5532 N.ar    1  UNL1       -0.1946
      9 C          66.3047   92.1560   13.8069 C.ar    1  UNL1        0.2924
     10 O          65.4672   90.9120   13.8385 O.2     1  UNL1       -0.4237
     11 C          64.6148   90.8955   12.6043 C.ar    1  UNL1        0.1662
     12 C          63.5959   89.9164   12.1012 C.ar    1  UNL1        0.0437
     13 N          67.3019   92.5742   14.8466 N.pl3   1  UNL1       -0.2636
     14 C          68.0599   91.6574   15.7603 C.3     1  UNL1        0.0951
     15 C          68.9426   92.4992   16.6334 C.3     1  UNL1        0.0233
     16 C          68.7301   93.9361   16.2592 C.3     1  UNL1        0.0233
     17 C          67.7160   93.9825   15.1548 C.3     1  UNL1        0.0951
     18 C          62.8993   87.3446   11.8087 C.3     1  UNL1        0.1245
     19 C          62.9093   85.9295   12.3062 C.3     1  UNL1        0.1484
     20 O          62.0980   84.7081   11.9902 O.3     1  UNL1       -0.3810
     21 H          62.4093   83.9646   12.5298 H       1  UNL1        0.2105
     22 C          63.8995   85.5090   13.3515 C.3     1  UNL1        0.1075
     23 O          62.5833   83.3299   14.7326 O.2     1  UNL1       -0.2264
     24 C          63.2700   83.1948   14.3509 C.2     1  UNL1        0.4020
     25 N          64.2052   84.0543   13.5530 N.am    1  UNL1       -0.2695
     26 H          65.0197   83.6636   13.1615 H       1  UNL1        0.1528
     27 O          63.5756   81.7402   14.5523 O.3     1  UNL1       -0.4291
     28 C          62.7152   80.6963   13.9044 C.3     1  UNL1        0.2447
     29 C          62.8280   80.4403   12.4307 C.ar    1  UNL1        0.0714
     30 C          62.6174   79.1223   11.7461 C.ar    1  UNL1        0.1053
     31 N          62.8304   79.3247   10.2752 N.ar    1  UNL1       -0.2350
     32 C          63.1726   80.7679   10.0507 C.ar    1  UNL1        0.1343
     33 S          63.1711   81.4573   11.3829 S.2     1  UNL1       -0.0652
     34 C          64.5840   86.5430   14.1954 C.3     1  UNL1        0.0485
     35 C          63.9476   87.0118   15.4703 C.ar    1  UNL1       -0.0204
     36 C          63.5457   86.0165   16.5180 C.ar    1  UNL1       -0.0042
     37 C          62.9094   86.4853   17.7929 C.ar    1  UNL1       -0.0003
     38 C          62.6750   87.9493   18.0201 C.ar    1  UNL1       -0.0000
     39 C          63.0769   88.9446   16.9723 C.ar    1  UNL1       -0.0003
     40 C          63.7132   88.4758   15.6974 C.ar    1  UNL1       -0.0042
     41 C          60.8556   86.7996   10.3000 C.3     1  UNL1        0.0937
     42 C          61.0771   86.0895    8.9975 C.3     1  UNL1        0.0199
     43 C          62.4256   85.5171    8.6752 C.3     1  UNL1        0.0017
     44 C          62.6471   84.8069    7.3727 C.3     1  UNL1        0.0001
     45 C          61.5200   84.6690    6.3924 C.3     1  UNL1        0.0000
     46 C          60.1715   85.2414    6.7147 C.3     1  UNL1        0.0001
     47 C          59.9501   85.9517    8.0173 C.3     1  UNL1        0.0017
@<TRIPOS>BOND
     1    23    24    2
     2    24    25   am
     3    25    22    1
     4    22    34    1
     5    34    35    1
     6    35    36   ar
     7    36    37   ar
     8    37    38   ar
     9    38    39   ar
    10    39    40   ar
    11    22    19    1
    12    19    20    1
    13    19    18    1
    14    18     1    1
    15     1    41    1
    16    41    42    1
    17    42    43    1
    18    43    44    1
    19    44    45    1
    20    45    46    1
    21    46    47    1
    22     1     2   am
    23     2     3    2
    24     2     4    1
    25     4     5   ar
    26     5     6   ar
    27     6     7   ar
    28     7     8   ar
    29     8     9   ar
    30     9    13    1
    31    13    14    1
    32    14    15    1
    33    15    16    1
    34    16    17    1
    35     9    10   ar
    36    10    11   ar
    37    11    12   ar
    38    24    27    1
    39    27    28    1
    40    28    29    1
    41    29    30   ar
    42    30    31   ar
    43    31    32   ar
    44    32    33   ar
    45    40    35   ar
    46    47    42    1
    47    12     4   ar
    48    33    29   ar
    49    11     7   ar
    50    17    13    1
    51    25    26    1
    52    20    21    1
@<TRIPOS>MOLECULE
*****
 47 52 0 0 0
SMALL
GASTEIGER

@<TRIPOS>ATOM
      1 N          63.3197   89.3556   12.7696 N.am    1  UNL1       -0.2735
      2 C          63.8680   88.6173   13.9546 C.2     1  UNL1        0.2492
      3 O          64.3755   89.3784   15.1433 O.2     1  UNL1       -0.2699
      4 C          63.9089   87.1178   13.9508 C.ar    1  UNL1        0.0567
      5 C          64.4257   86.3786   15.1493 C.ar    1  UNL1        0.0063
      6 C          64.4665   84.8792   15.1455 C.ar    1  UNL1        0.0225
      7 C          63.9905   84.1189   13.9432 C.ar    1  UNL1        0.1202
      8 N          63.9113   82.6497   13.6514 N.ar    1  UNL1       -0.1946
      9 C          63.3455   82.4809   12.2725 C.ar    1  UNL1        0.2924
     10 O          63.0751   83.8458   11.7122 O.2     1  UNL1       -0.4237
     11 C          63.4737   84.8581   12.7447 C.ar    1  UNL1        0.1662
     12 C          63.4329   86.3575   12.7485 C.ar    1  UNL1        0.0437
     13 N          63.0943   81.1763   11.5761 N.pl3   1  UNL1       -0.2636
     14 C          63.1959   80.9310   10.0998 C.3     1  UNL1        0.0951
     15 C          62.8617   79.4910    9.8452 C.3     1  UNL1        0.0233
     16 C          62.5536   78.8464   11.1641 C.3     1  UNL1        0.0233
     17 C          62.6973   79.8880   12.2339 C.3     1  UNL1        0.0951
     18 C          62.8122   88.5944   11.5808 C.3     1  UNL1        0.1245
     19 C          62.1649   89.3260   10.4424 C.3     1  UNL1        0.1484
     20 O          62.4858   90.5880    9.6979 O.3     1  UNL1       -0.3810
     21 H          61.8173   90.7370    9.0109 H       1  UNL1        0.2105
     22 C          60.9135   88.7842    9.8176 C.3     1  UNL1        0.1075
     23 O          59.9663   89.0539    7.0940 O.2     1  UNL1       -0.2264
     24 C          59.6994   89.5549    7.6537 C.2     1  UNL1        0.4020
     25 N          59.9603   89.7108    9.1226 N.am    1  UNL1       -0.2695
     26 H          59.5059   90.4213    9.6306 H       1  UNL1        0.1528
     27 O          58.7463   90.4814    6.9588 O.3     1  UNL1       -0.4291
     28 C          58.6310   90.4554    5.4634 C.3     1  UNL1        0.2447
     29 C          59.5471   91.2976    4.6258 C.ar    1  UNL1        0.0714
     30 C          61.0341   91.1370    4.5118 C.ar    1  UNL1        0.1053
     31 N          61.5431   92.1883    3.5707 N.ar    1  UNL1       -0.2350
     32 C          60.3705   92.9986    3.1030 C.ar    1  UNL1        0.1343
     33 S          59.1370   92.4481    3.7551 S.2     1  UNL1       -0.0652
     34 C          60.6153   87.3158    9.8876 C.3     1  UNL1        0.0485
     35 C          61.2043   86.3816    8.8726 C.ar    1  UNL1       -0.0204
     36 C          60.3648   85.8873    7.7320 C.ar    1  UNL1       -0.0042
     37 C          60.9539   84.9531    6.7170 C.ar    1  UNL1       -0.0003
     38 C          62.3824   84.5132    6.8425 C.ar    1  UNL1       -0.0000
     39 C          63.2218   85.0075    7.9831 C.ar    1  UNL1       -0.0003
     40 C          62.6328   85.9417    8.9981 C.ar    1  UNL1       -0.0042
     41 C          63.2788   90.8550   12.7733 C.3     1  UNL1        0.0937
     42 C          64.4975   91.6395   12.3869 C.3     1  UNL1        0.0199
     43 C          65.5391   91.9629   13.4167 C.3     1  UNL1        0.0017
     44 C          66.7577   92.7474   13.0302 C.3     1  UNL1        0.0001
     45 C          66.9350   93.2084   11.6138 C.3     1  UNL1        0.0000
     46 C          65.8934   92.8849   10.5840 C.3     1  UNL1        0.0001
     47 C          64.6747   92.1005   10.9705 C.3     1  UNL1        0.0017
@<TRIPOS>BOND
     1    23    24    2
     2    24    25   am
     3    25    22    1
     4    22    34    1
     5    34    35    1
     6    35    36   ar
     7    36    37   ar
     8    37    38   ar
     9    38    39   ar
    10    39    40   ar
    11    22    19    1
    12    19    20    1
    13    19    18    1
    14    18     1    1
    15     1    41    1
    16    41    42    1
    17    42    43    1
    18    43    44    1
    19    44    45    1
    20    45    46    1
    21    46    47    1
    22     1     2   am
    23     2     3    2
    24     2     4    1
    25     4     5   ar
    26     5     6   ar
    27     6     7   ar
    28     7     8   ar
    29     8     9   ar
    30     9    13    1
    31    13    14    1
    32    14    15    1
    33    15    16    1
    34    16    17    1
    35     9    10   ar
    36    10    11   ar
    37    11    12   ar
    38    24    27    1
    39    27    28    1
    40    28    29    1
    41    29    30   ar
    42    30    31   ar
    43    31    32   ar
    44    32    33   ar
    45    40    35   ar
    46    47    42    1
    47    12     4   ar
    48    33    29   ar
    49    11     7   ar
    50    17    13    1
    51    25    26    1
    52    20    21    1
@<TRIPOS>MOLECULE
*****
 47 52 0 0 0
SMALL
GASTEIGER

@<TRIPOS>ATOM
      1 N          61.7385   88.2952   11.0653 N.am    1  UNL1       -0.2735
      2 C          61.7773   89.7423   10.6726 C.2     1  UNL1        0.2492
      3 O          60.6539   90.3328    9.8730 O.2     1  UNL1       -0.2699
      4 C          62.9395   90.5990   11.0793 C.ar    1  UNL1        0.0567
      5 C          63.4766   91.6324   10.1341 C.ar    1  UNL1        0.0063
      6 C          64.6387   92.4891   10.5409 C.ar    1  UNL1        0.0225
      7 C          65.2638   92.3123   11.8929 C.ar    1  UNL1        0.1202
      8 N          66.4111   93.0051   12.5666 N.ar    1  UNL1       -0.1946
      9 C          66.5831   92.3998   13.9282 C.ar    1  UNL1        0.2924
     10 O          65.5420   91.3330   14.0961 O.2     1  UNL1       -0.4237
     11 C          64.7266   91.2790   12.8382 C.ar    1  UNL1        0.1662
     12 C          63.5645   90.4223   12.4314 C.ar    1  UNL1        0.0437
     13 N          67.6149   92.7924   14.9438 N.pl3   1  UNL1       -0.2636
     14 C          68.4017   91.8535   15.8095 C.3     1  UNL1        0.0951
     15 C          69.3142   92.6736   16.6726 C.3     1  UNL1        0.0233
     16 C          69.0913   94.1192   16.3403 C.3     1  UNL1        0.0233
     17 C          68.0410   94.1926   15.2717 C.3     1  UNL1        0.0951
     18 C          62.8619   87.7047   11.8649 C.3     1  UNL1        0.1245
     19 C          62.7410   86.3145   12.4151 C.3     1  UNL1        0.1484
     20 O          61.6446   85.2909   12.4288 O.3     1  UNL1       -0.3810
     21 H          61.9514   84.4946   12.8900 H       1  UNL1        0.2105
     22 C          63.8995   85.6889   13.1338 C.3     1  UNL1        0.1075
     23 O          64.0451   84.1046   10.7137 O.2     1  UNL1       -0.2264
     24 C          64.2513   83.7767   11.4105 C.2     1  UNL1        0.4020
     25 N          64.3007   84.2772   12.8236 N.am    1  UNL1       -0.2695
     26 H          64.5965   83.6792   13.5476 H       1  UNL1        0.1528
     27 O          64.6525   82.3651   11.1003 O.3     1  UNL1       -0.4291
     28 C          63.6082   81.2928   11.0026 C.3     1  UNL1        0.2447
     29 C          62.7840   80.9368   12.2044 C.ar    1  UNL1        0.0714
     30 C          62.5303   79.5514   12.7204 C.ar    1  UNL1        0.1053
     31 N          61.6584   79.6620   13.9360 N.ar    1  UNL1       -0.2350
     32 C          61.3734   81.1158   14.1713 C.ar    1  UNL1        0.1343
     33 S          62.0691   81.9036   13.1010 S.2     1  UNL1       -0.0652
     34 C          64.6568   86.4751   14.1626 C.3     1  UNL1        0.0485
     35 C          63.9842   86.8824   15.4399 C.ar    1  UNL1       -0.0204
     36 C          63.7466   88.3342   15.7326 C.ar    1  UNL1       -0.0042
     37 C          63.0740   88.7416   17.0099 C.ar    1  UNL1       -0.0003
     38 C          62.6390   87.6971   17.9947 C.ar    1  UNL1       -0.0000
     39 C          62.8766   86.2452   17.7021 C.ar    1  UNL1       -0.0003
     40 C          63.5492   85.8379   16.4247 C.ar    1  UNL1       -0.0042
     41 C          60.5763   87.4385   10.6586 C.3     1  UNL1        0.0937
     42 C          60.6065   86.7056    9.3502 C.3     1  UNL1        0.0199
     43 C          59.3990   86.7097    8.4602 C.3     1  UNL1        0.0017
     44 C          59.4292   85.9768    7.1518 C.3     1  UNL1        0.0001
     45 C          60.6669   85.2397    6.7334 C.3     1  UNL1        0.0000
     46 C          61.8743   85.2357    7.6234 C.3     1  UNL1        0.0001
     47 C          61.8441   85.9686    8.9318 C.3     1  UNL1        0.0017
@<TRIPOS>BOND
     1    23    24    2
     2    24    25   am
     3    25    22    1
     4    22    34    1
     5    34    35    1
     6    35    36   ar
     7    36    37   ar
     8    37    38   ar
     9    38    39   ar
    10    39    40   ar
    11    22    19    1
    12    19    20    1
    13    19    18    1
    14    18     1    1
    15     1    41    1
    16    41    42    1
    17    42    43    1
    18    43    44    1
    19    44    45    1
    20    45    46    1
    21    46    47    1
    22     1     2   am
    23     2     3    2
    24     2     4    1
    25     4     5   ar
    26     5     6   ar
    27     6     7   ar
    28     7     8   ar
    29     8     9   ar
    30     9    13    1
    31    13    14    1
    32    14    15    1
    33    15    16    1
    34    16    17    1
    35     9    10   ar
    36    10    11   ar
    37    11    12   ar
    38    24    27    1
    39    27    28    1
    40    28    29    1
    41    29    30   ar
    42    30    31   ar
    43    31    32   ar
    44    32    33   ar
    45    40    35   ar
    46    47    42    1
    47    12     4   ar
    48    33    29   ar
    49    11     7   ar
    50    17    13    1
    51    25    26    1
    52    20    21    1
@<TRIPOS>MOLECULE
*****
 47 52 0 0 0
SMALL
GASTEIGER

@<TRIPOS>ATOM
      1 N          63.7322   89.2103   14.8708 N.am    1  UNL1       -0.2735
      2 C          64.2024   90.4498   15.5725 C.2     1  UNL1        0.2492
      3 O          63.9527   90.6205   17.0417 O.2     1  UNL1       -0.2699
      4 C          64.9223   91.5188   14.8049 C.ar    1  UNL1        0.0567
      5 C          65.9725   92.3494   15.4810 C.ar    1  UNL1        0.0063
      6 C          66.6924   93.4183   14.7134 C.ar    1  UNL1        0.0225
      7 C          66.3620   93.6567   13.2698 C.ar    1  UNL1        0.1202
      8 N          66.9005   94.6312   12.2646 N.ar    1  UNL1       -0.1946
      9 C          66.1830   94.4029   10.9673 C.ar    1  UNL1        0.2924
     10 O          65.2011   93.2873   11.1707 O.2     1  UNL1       -0.4237
     11 C          65.3118   92.8261   12.5937 C.ar    1  UNL1        0.1662
     12 C          64.5919   91.7572   13.3613 C.ar    1  UNL1        0.0437
     13 N          66.4079   95.1577    9.6906 N.pl3   1  UNL1       -0.2636
     14 C          65.7402   96.4417    9.2962 C.3     1  UNL1        0.0951
     15 C          66.2596   96.8384    7.9460 C.3     1  UNL1        0.0233
     16 C          67.2482   95.7997    7.5061 C.3     1  UNL1        0.0233
     17 C          67.3398   94.7609    8.5844 C.3     1  UNL1        0.0951
     18 C          63.9819   89.0396   13.4016 C.3     1  UNL1        0.1245
     19 C          62.8811   89.3056   12.4179 C.3     1  UNL1        0.1484
     20 O          62.0482   90.5082   12.0861 O.3     1  UNL1       -0.3810
     21 H          61.4262   90.2847   11.3762 H       1  UNL1        0.2105
     22 C          62.4129   88.2132   11.5028 C.3     1  UNL1        0.1075
     23 O          63.3788   85.4841   11.5883 O.2     1  UNL1       -0.2264
     24 C          62.6801   85.6639   11.9274 C.2     1  UNL1        0.4020
     25 N          61.8883   86.9294   12.0745 N.am    1  UNL1       -0.2695
     26 H          61.0242   86.9174   12.5462 H       1  UNL1        0.1528
     27 O          62.1555   84.3802   12.4990 O.3     1  UNL1       -0.4291
     28 C          62.6476   83.0664   11.9681 C.3     1  UNL1        0.2447
     29 C          62.6938   81.8650   12.8651 C.ar    1  UNL1        0.0714
     30 C          63.9231   81.0917   13.2405 C.ar    1  UNL1        0.1053
     31 N          63.5079   79.9747   14.1515 N.ar    1  UNL1       -0.2350
     32 C          62.0220   80.0576   14.3391 C.ar    1  UNL1        0.1343
     33 S          61.5188   81.2258   13.5440 S.2     1  UNL1       -0.0652
     34 C          62.4693   88.4045   10.0162 C.3     1  UNL1        0.0485
     35 C          61.3604   87.8842    9.1504 C.ar    1  UNL1       -0.0204
     36 C          60.2484   88.7974    8.7266 C.ar    1  UNL1       -0.0042
     37 C          59.1394   88.2771    7.8609 C.ar    1  UNL1       -0.0003
     38 C          59.1424   86.8438    7.4189 C.ar    1  UNL1       -0.0000
     39 C          60.2544   85.9306    7.8427 C.ar    1  UNL1       -0.0003
     40 C          61.3633   86.4509    8.7085 C.ar    1  UNL1       -0.0042
     41 C          63.0123   88.1413   15.6384 C.3     1  UNL1        0.0937
     42 C          63.4443   86.7101   15.5161 C.3     1  UNL1        0.0199
     43 C          64.7434   86.3734   14.8459 C.3     1  UNL1        0.0017
     44 C          65.1754   84.9422   14.7236 C.3     1  UNL1        0.0001
     45 C          64.3083   83.8476   15.2715 C.3     1  UNL1        0.0000
     46 C          63.0093   84.1843   15.9416 C.3     1  UNL1        0.0001
     47 C          62.5773   85.6156   16.0639 C.3     1  UNL1        0.0017
@<TRIPOS>BOND
     1    23    24    2
     2    24    25   am
     3    25    22    1
     4    22    34    1
     5    34    35    1
     6    35    36   ar
     7    36    37   ar
     8    37    38   ar
     9    38    39   ar
    10    39    40   ar
    11    22    19    1
    12    19    20    1
    13    19    18    1
    14    18     1    1
    15     1    41    1
    16    41    42    1
    17    42    43    1
    18    43    44    1
    19    44    45    1
    20    45    46    1
    21    46    47    1
    22     1     2   am
    23     2     3    2
    24     2     4    1
    25     4     5   ar
    26     5     6   ar
    27     6     7   ar
    28     7     8   ar
    29     8     9   ar
    30     9    13    1
    31    13    14    1
    32    14    15    1
    33    15    16    1
    34    16    17    1
    35     9    10   ar
    36    10    11   ar
    37    11    12   ar
    38    24    27    1
    39    27    28    1
    40    28    29    1
    41    29    30   ar
    42    30    31   ar
    43    31    32   ar
    44    32    33   ar
    45    40    35   ar
    46    47    42    1
    47    12     4   ar
    48    33    29   ar
    49    11     7   ar
    50    17    13    1
    51    25    26    1
    52    20    21    1
@<TRIPOS>MOLECULE
*****
 47 52 0 0 0
SMALL
GASTEIGER

@<TRIPOS>ATOM
      1 N          63.4782   88.6225   14.3949 N.am    1  UNL1       -0.2735
      2 C          64.0346   89.7288   15.2414 C.2     1  UNL1        0.2492
      3 O          63.8735   89.6862   16.7321 O.2     1  UNL1       -0.2699
      4 C          64.7523   90.8778   14.5971 C.ar    1  UNL1        0.0567
      5 C          65.7672   91.6602   15.3767 C.ar    1  UNL1        0.0063
      6 C          66.4847   92.8091   14.7324 C.ar    1  UNL1        0.0225
      7 C          66.1874   93.1755   13.3086 C.ar    1  UNL1        0.1202
      8 N          66.7319   94.2495   12.4139 N.ar    1  UNL1       -0.1946
      9 C          66.0534   94.1307   11.0814 C.ar    1  UNL1        0.2924
     10 O          65.0897   92.9834   11.1526 O.2     1  UNL1       -0.4237
     11 C          65.1725   92.3931   12.5290 C.ar    1  UNL1        0.1662
     12 C          64.4550   91.2442   13.1733 C.ar    1  UNL1        0.0437
     13 N          66.2961   95.0056    9.8874 N.pl3   1  UNL1       -0.2636
     14 C          65.5661   96.2749    9.5615 C.3     1  UNL1        0.0951
     15 C          66.1302   96.8186    8.2823 C.3     1  UNL1        0.0233
     16 C          67.2087   95.8853    7.8177 C.3     1  UNL1        0.0233
     17 C          67.3111   94.7648    8.8097 C.3     1  UNL1        0.0951
     18 C          63.6394   88.6652   12.9042 C.3     1  UNL1        0.1245
     19 C          62.4583   88.9682   12.0305 C.3     1  UNL1        0.1484
     20 O          61.5427   90.1478   11.8882 O.3     1  UNL1       -0.3810
     21 H          60.8835   89.9643   11.2008 H       1  UNL1        0.2105
     22 C          61.9823   87.9528   11.0342 C.3     1  UNL1        0.1075
     23 O          59.7550   88.2155    9.2018 O.2     1  UNL1       -0.2264
     24 C          60.4950   88.3606    8.9433 C.2     1  UNL1        0.4020
     25 N          61.8492   88.3267    9.5876 N.am    1  UNL1       -0.2695
     26 H          62.6506   88.5499    9.0611 H       1  UNL1        0.1528
     27 O          60.3618   88.7344    7.4968 O.3     1  UNL1       -0.4291
     28 C          59.0295   89.1540    6.9502 C.3     1  UNL1        0.2447
     29 C          58.9461   90.2721    5.9537 C.ar    1  UNL1        0.0714
     30 C          57.6890   90.9411    5.4823 C.ar    1  UNL1        0.1053
     31 N          58.0710   91.9999    4.4909 N.ar    1  UNL1       -0.2350
     32 C          59.5643   91.9852    4.3495 C.ar    1  UNL1        0.1343
     33 S          60.1051   90.9174    5.2535 S.2     1  UNL1       -0.0652
     34 C          61.6395   86.5637   11.4845 C.3     1  UNL1        0.0485
     35 C          62.4274   85.3939   10.9739 C.ar    1  UNL1       -0.0204
     36 C          62.8283   84.2933   11.9108 C.ar    1  UNL1       -0.0042
     37 C          63.6162   83.1235   11.4002 C.ar    1  UNL1       -0.0003
     38 C          64.0032   83.0543    9.9526 C.ar    1  UNL1       -0.0000
     39 C          63.6023   84.1549    9.0157 C.ar    1  UNL1       -0.0003
     40 C          62.8144   85.3247    9.5263 C.ar    1  UNL1       -0.0042
     41 C          62.7606   87.4736   15.0392 C.3     1  UNL1        0.0937
     42 C          63.3710   86.1035   15.0220 C.3     1  UNL1        0.0199
     43 C          62.5577   84.9148   15.4408 C.3     1  UNL1        0.0017
     44 C          63.1681   83.5448   15.4237 C.3     1  UNL1        0.0001
     45 C          64.5918   83.3634   14.9876 C.3     1  UNL1        0.0000
     46 C          65.4051   84.5521   14.5688 C.3     1  UNL1        0.0001
     47 C          64.7947   85.9222   14.5860 C.3     1  UNL1        0.0017
@<TRIPOS>BOND
     1    23    24    2
     2    24    25   am
     3    25    22    1
     4    22    34    1
     5    34    35    1
     6    35    36   ar
     7    36    37   ar
     8    37    38   ar
     9    38    39   ar
    10    39    40   ar
    11    22    19    1
    12    19    20    1
    13    19    18    1
    14    18     1    1
    15     1    41    1
    16    41    42    1
    17    42    43    1
    18    43    44    1
    19    44    45    1
    20    45    46    1
    21    46    47    1
    22     1     2   am
    23     2     3    2
    24     2     4    1
    25     4     5   ar
    26     5     6   ar
    27     6     7   ar
    28     7     8   ar
    29     8     9   ar
    30     9    13    1
    31    13    14    1
    32    14    15    1
    33    15    16    1
    34    16    17    1
    35     9    10   ar
    36    10    11   ar
    37    11    12   ar
    38    24    27    1
    39    27    28    1
    40    28    29    1
    41    29    30   ar
    42    30    31   ar
    43    31    32   ar
    44    32    33   ar
    45    40    35   ar
    46    47    42    1
    47    12     4   ar
    48    33    29   ar
    49    11     7   ar
    50    17    13    1
    51    25    26    1
    52    20    21    1
