@<TRIPOS>MOLECULE
*****
 12 13 0 0 0
SMALL
GASTEIGER

@<TRIPOS>ATOM
      1 C          62.7361   85.5794    8.6867 C.ar    1  UNL1        0.0000
      2 C          63.5358   84.3569    9.0272 C.ar    1  UNL1        0.0000
      3 C          63.5239   83.8188   10.4273 C.ar    1  UNL1        0.0015
      4 C          62.7123   84.5033   11.4869 C.ar    1  UNL1        0.0172
      5 C          61.9126   85.7258   11.1464 C.ar    1  UNL1        0.0015
      6 C          61.9245   86.2638    9.7463 C.ar    1  UNL1        0.0000
      7 C          62.7003   83.9652   12.8870 C.ar    1  UNL1        0.0772
      8 C          62.7945   82.5199   13.2770 C.ar    1  UNL1        0.1175
      9 N          62.7445   82.4394   14.7740 N.ar    1  UNL1       -0.2225
     10 C          62.6194   83.8351   15.3093 C.ar    1  UNL1        0.1750
     11 N          62.5921   84.7780   14.1431 N.ar    1  UNL1       -0.3349
     12 H          62.5164   85.7583   14.1932 H       1  UNL1        0.1675
@<TRIPOS>BOND
     1     1     2   ar
     2     2     3   ar
     3     3     4   ar
     4     4     7    1
     5     7     8   ar
     6     8     9   ar
     7     9    10   ar
     8    10    11   ar
     9     4     5   ar
    10     5     6   ar
    11     6     1   ar
    12    11     7   ar
    13    11    12    1
@<TRIPOS>MOLECULE
*****
 12 13 0 0 0
SMALL
GASTEIGER

@<TRIPOS>ATOM
      1 C          62.0456   85.0361    7.3980 C.ar    1  UNL1        0.0000
      2 C          60.6407   85.5313    7.2221 C.ar    1  UNL1        0.0000
      3 C          60.0962   86.5845    8.1409 C.ar    1  UNL1        0.0015
      4 C          60.9565   87.1426    9.2355 C.ar    1  UNL1        0.0172
      5 C          62.3614   86.6474    9.4114 C.ar    1  UNL1        0.0015
      6 C          62.9060   85.5941    8.4926 C.ar    1  UNL1        0.0000
      7 C          60.4120   88.1958   10.1543 C.ar    1  UNL1        0.0772
      8 C          60.2589   89.6529    9.8327 C.ar    1  UNL1        0.1175
      9 N          59.6772   90.3346   11.0356 N.ar    1  UNL1       -0.2225
     10 C          59.4708   89.2987   12.1007 C.ar    1  UNL1        0.1750
     11 N          59.9249   87.9769   11.5560 N.ar    1  UNL1       -0.3349
     12 H          59.9065   87.1167   12.0345 H       1  UNL1        0.1675
@<TRIPOS>BOND
     1     1     2   ar
     2     2     3   ar
     3     3     4   ar
     4     4     7    1
     5     7     8   ar
     6     8     9   ar
     7     9    10   ar
     8    10    11   ar
     9     4     5   ar
    10     5     6   ar
    11     6     1   ar
    12    11     7   ar
    13    11    12    1
@<TRIPOS>MOLECULE
*****
 12 13 0 0 0
SMALL
GASTEIGER

@<TRIPOS>ATOM
      1 C          63.2951   84.3795    9.5476 C.ar    1  UNL1        0.0000
      2 C          62.9541   85.4248    8.5272 C.ar    1  UNL1        0.0000
      3 C          62.1608   86.6332    8.9277 C.ar    1  UNL1        0.0015
      4 C          61.7085   86.7964   10.3485 C.ar    1  UNL1        0.0172
      5 C          62.0495   85.7512   11.3689 C.ar    1  UNL1        0.0015
      6 C          62.8428   84.5427   10.9684 C.ar    1  UNL1        0.0000
      7 C          60.9152   88.0049   10.7490 C.ar    1  UNL1        0.0772
      8 C          60.9441   89.3428   10.0715 C.ar    1  UNL1        0.1175
      9 N          60.0005   90.2524   10.8011 N.ar    1  UNL1       -0.2225
     10 C          59.3885   89.4766   11.9296 C.ar    1  UNL1        0.1750
     11 N          59.9538   88.0876   11.8974 N.ar    1  UNL1       -0.3349
     12 H          59.7327   87.3582   12.5206 H       1  UNL1        0.1675
@<TRIPOS>BOND
     1     1     2   ar
     2     2     3   ar
     3     3     4   ar
     4     4     7    1
     5     7     8   ar
     6     8     9   ar
     7     9    10   ar
     8    10    11   ar
     9     4     5   ar
    10     5     6   ar
    11     6     1   ar
    12    11     7   ar
    13    11    12    1
@<TRIPOS>MOLECULE
*****
 12 13 0 0 0
SMALL
GASTEIGER

@<TRIPOS>ATOM
      1 C          64.3335   82.4948   11.8009 C.ar    1  UNL1        0.0000
      2 C          64.2333   82.8783   10.3542 C.ar    1  UNL1        0.0000
      3 C          63.3975   84.0552    9.9465 C.ar    1  UNL1        0.0015
      4 C          62.6619   84.8486   10.9853 C.ar    1  UNL1        0.0172
      5 C          62.7621   84.4651   12.4320 C.ar    1  UNL1        0.0015
      6 C          63.5979   83.2882   12.8397 C.ar    1  UNL1        0.0000
      7 C          61.8261   86.0255   10.5776 C.ar    1  UNL1        0.0772
      8 C          61.8083   86.6669    9.2218 C.ar    1  UNL1        0.1175
      9 N          60.8325   87.8055    9.2603 N.ar    1  UNL1       -0.2225
     10 C          60.2472   87.8678   10.6399 C.ar    1  UNL1        0.1750
     11 N          60.8612   86.7677   11.4541 N.ar    1  UNL1       -0.3349
     12 H          60.6654   86.5679   12.3980 H       1  UNL1        0.1675
@<TRIPOS>BOND
     1     1     2   ar
     2     2     3   ar
     3     3     4   ar
     4     4     7    1
     5     7     8   ar
     6     8     9   ar
     7     9    10   ar
     8    10    11   ar
     9     4     5   ar
    10     5     6   ar
    11     6     1   ar
    12    11     7   ar
    13    11    12    1
@<TRIPOS>MOLECULE
*****
 12 13 0 0 0
SMALL
GASTEIGER

@<TRIPOS>ATOM
      1 C          63.2390   90.1577   12.5832 C.ar    1  UNL1        0.0000
      2 C          64.3025   90.8260   13.4030 C.ar    1  UNL1        0.0000
      3 C          65.1609   91.8934   12.7915 C.ar    1  UNL1        0.0015
      4 C          64.9558   92.2924   11.3602 C.ar    1  UNL1        0.0172
      5 C          63.8923   91.6240   10.5404 C.ar    1  UNL1        0.0015
      6 C          63.0339   90.5566   11.1519 C.ar    1  UNL1        0.0000
      7 C          65.8142   93.3597   10.7487 C.ar    1  UNL1        0.0772
      8 C          67.1891   93.1676   10.1806 C.ar    1  UNL1        0.1175
      9 N          67.6731   94.4957    9.6787 N.ar    1  UNL1       -0.2225
     10 C          66.5972   95.5087    9.9366 C.ar    1  UNL1        0.1750
     11 N          65.4484   94.8066   10.5979 N.ar    1  UNL1       -0.3349
     12 H          64.6028   95.2224   10.8829 H       1  UNL1        0.1675
@<TRIPOS>BOND
     1     1     2   ar
     2     2     3   ar
     3     3     4   ar
     4     4     7    1
     5     7     8   ar
     6     8     9   ar
     7     9    10   ar
     8    10    11   ar
     9     4     5   ar
    10     5     6   ar
    11     6     1   ar
    12    11     7   ar
    13    11    12    1
@<TRIPOS>MOLECULE
*****
 12 13 0 0 0
SMALL
GASTEIGER

@<TRIPOS>ATOM
      1 C          63.5377   83.8227   10.8163 C.ar    1  UNL1        0.0000
      2 C          63.6553   84.1206    9.3509 C.ar    1  UNL1        0.0000
      3 C          62.7834   85.1692    8.7264 C.ar    1  UNL1        0.0015
      4 C          61.7939   85.9200    9.5672 C.ar    1  UNL1        0.0172
      5 C          61.6763   85.6222   11.0326 C.ar    1  UNL1        0.0015
      6 C          62.5482   84.5735   11.6571 C.ar    1  UNL1        0.0000
      7 C          60.9219   86.9687    8.9427 C.ar    1  UNL1        0.0772
      8 C          59.8227   86.7256    7.9514 C.ar    1  UNL1        0.1175
      9 N          59.2176   88.0512    7.5958 N.ar    1  UNL1       -0.2225
     10 C          59.9427   89.1137    8.3674 C.ar    1  UNL1        0.1750
     11 N          60.9961   88.4446    9.1998 N.ar    1  UNL1       -0.3349
     12 H          61.6256   88.8951    9.8080 H       1  UNL1        0.1675
@<TRIPOS>BOND
     1     1     2   ar
     2     2     3   ar
     3     3     4   ar
     4     4     7    1
     5     7     8   ar
     6     8     9   ar
     7     9    10   ar
     8    10    11   ar
     9     4     5   ar
    10     5     6   ar
    11     6     1   ar
    12    11     7   ar
    13    11    12    1
@<TRIPOS>MOLECULE
*****
 12 13 0 0 0
SMALL
GASTEIGER

@<TRIPOS>ATOM
      1 C          59.9835   86.5364    7.7589 C.ar    1  UNL1        0.0000
      2 C          59.5241   87.9363    8.0402 C.ar    1  UNL1        0.0000
      3 C          60.2907   88.7990    8.9983 C.ar    1  UNL1        0.0015
      4 C          61.5168   88.2619    9.6750 C.ar    1  UNL1        0.0172
      5 C          61.9763   86.8621    9.3937 C.ar    1  UNL1        0.0015
      6 C          61.2097   85.9993    8.4356 C.ar    1  UNL1        0.0000
      7 C          62.2835   89.1247   10.6331 C.ar    1  UNL1        0.0772
      8 C          62.7585   90.5236   10.3737 C.ar    1  UNL1        0.1175
      9 N          63.4783   91.0035   11.5991 N.ar    1  UNL1       -0.2225
     10 C          63.4482   89.9011   12.6159 C.ar    1  UNL1        0.1750
     11 N          62.7098   88.7399   12.0188 N.ar    1  UNL1       -0.3349
     12 H          62.5355   87.8768   12.4592 H       1  UNL1        0.1675
@<TRIPOS>BOND
     1     1     2   ar
     2     2     3   ar
     3     3     4   ar
     4     4     7    1
     5     7     8   ar
     6     8     9   ar
     7     9    10   ar
     8    10    11   ar
     9     4     5   ar
    10     5     6   ar
    11     6     1   ar
    12    11     7   ar
    13    11    12    1
@<TRIPOS>MOLECULE
*****
 12 13 0 0 0
SMALL
GASTEIGER

@<TRIPOS>ATOM
      1 C          63.8639   86.4338   16.0562 C.ar    1  UNL1        0.0000
      2 C          64.6766   85.9964   14.8738 C.ar    1  UNL1        0.0000
      3 C          64.3686   84.6965   14.1915 C.ar    1  UNL1        0.0015
      4 C          63.2479   83.8341   14.6916 C.ar    1  UNL1        0.0172
      5 C          62.4352   84.2715   15.8740 C.ar    1  UNL1        0.0015
      6 C          62.7432   85.5714   16.5563 C.ar    1  UNL1        0.0000
      7 C          62.9399   82.5342   14.0094 C.ar    1  UNL1        0.0772
      8 C          63.3363   82.1557   12.6131 C.ar    1  UNL1        0.1175
      9 N          62.8229   80.7722   12.3444 N.ar    1  UNL1       -0.2225
     10 C          62.1091   80.2956   13.5746 C.ar    1  UNL1        0.1750
     11 N          62.1815   81.3846   14.6036 N.ar    1  UNL1       -0.3349
     12 H          61.7984   81.3507   15.5099 H       1  UNL1        0.1675
@<TRIPOS>BOND
     1     1     2   ar
     2     2     3   ar
     3     3     4   ar
     4     4     7    1
     5     7     8   ar
     6     8     9   ar
     7     9    10   ar
     8    10    11   ar
     9     4     5   ar
    10     5     6   ar
    11     6     1   ar
    12    11     7   ar
    13    11    12    1
@<TRIPOS>MOLECULE
*****
 12 13 0 0 0
SMALL
GASTEIGER

@<TRIPOS>ATOM
      1 C          60.8769   88.7549    9.2629 C.ar    1  UNL1        0.0000
      2 C          61.8196   89.0063   10.4022 C.ar    1  UNL1        0.0000
      3 C          62.3502   87.8553   11.2045 C.ar    1  UNL1        0.0015
      4 C          61.9381   86.4530   10.8675 C.ar    1  UNL1        0.0172
      5 C          60.9954   86.2016    9.7282 C.ar    1  UNL1        0.0015
      6 C          60.4648   87.3526    8.9259 C.ar    1  UNL1        0.0000
      7 C          62.4687   85.3020   11.6698 C.ar    1  UNL1        0.0772
      8 C          63.0550   84.0372   11.1161 C.ar    1  UNL1        0.1175
      9 N          63.4548   83.1672   12.2707 N.ar    1  UNL1       -0.2225
     10 C          63.1156   83.8943   13.5381 C.ar    1  UNL1        0.1750
     11 N          62.5062   85.2136   13.1667 N.ar    1  UNL1       -0.3349
     12 H          62.1868   85.9009   13.7951 H       1  UNL1        0.1675
@<TRIPOS>BOND
     1     1     2   ar
     2     2     3   ar
     3     3     4   ar
     4     4     7    1
     5     7     8   ar
     6     8     9   ar
     7     9    10   ar
     8    10    11   ar
     9     4     5   ar
    10     5     6   ar
    11     6     1   ar
    12    11     7   ar
    13    11    12    1
