@<TRIPOS>MOLECULE
*****
 61 68 0 0 0
SMALL
GASTEIGER

@<TRIPOS>ATOM
      1 N          65.3523   89.3366   14.6633 N.3     1  UNL1       -0.1862
      2 C          65.5418   88.0871   15.4711 C.3     1  UNL1        0.1775
      3 C          64.8075   86.8337   15.0973 C.2     1  UNL1        0.2452
      4 O          64.9970   85.5841   15.9053 O.2     1  UNL1       -0.2732
      5 N          63.8837   86.8298   13.9155 N.am    1  UNL1       -0.2541
      6 C          63.1494   85.5765   13.5417 C.3     1  UNL1        0.1577
      7 C          62.2256   85.5726   12.3599 C.2     1  UNL1        0.2445
      8 O          61.4913   84.3192   11.9861 O.2     1  UNL1       -0.2731
      9 N          62.0361   86.8222   11.5520 N.am    1  UNL1       -0.2705
     10 C          62.7704   88.0756   11.9258 C.3     1  UNL1        0.1359
     11 C          63.6942   88.0794   13.1076 C.3     1  UNL1        0.1908
     12 N          64.4286   89.3328   13.4815 N.am    1  UNL1       -0.1863
     13 C          64.2391   90.5824   12.6735 C.2     1  UNL1        0.3191
     14 O          63.3153   90.5785   11.4918 O.2     1  UNL1       -0.2512
     15 N          64.9734   91.8358   13.0474 N.am    1  UNL1       -0.2836
     16 H          65.5797   91.8383   13.8230 H       1  UNL1        0.1513
     17 C          66.0866   90.5900   15.0371 C.3     1  UNL1        0.1188
     18 C          68.0495   92.2213   14.5512 C.2     1  UNL1       -0.0034
     19 C          67.4639   90.8414   14.4986 C.2     1  UNL1       -0.0071
     20 C          63.3388   84.3269   14.3496 C.3     1  UNL1        0.0556
     21 C          63.1383   82.9840   13.7121 C.ar    1  UNL1       -0.0198
     22 C          62.1281   82.0294   14.2762 C.ar    1  UNL1       -0.0011
     23 C          61.9276   80.6865   13.6387 C.ar    1  UNL1        0.0363
     24 C          62.7371   80.2982   12.4372 C.ar    1  UNL1        0.1337
     25 O          62.5366   78.9553   11.7997 O.3     1  UNL1       -0.5055
     26 C          63.7473   81.2529   11.8730 C.ar    1  UNL1        0.0363
     27 C          63.9479   82.5958   12.5105 C.ar    1  UNL1       -0.0011
     28 H          61.9056   78.3589   12.1521 H       1  UNL1        0.2922
     29 C          61.1123   86.8183   10.3702 C.3     1  UNL1        0.1217
     30 C          60.5378   88.1078    9.8631 C.ar    1  UNL1        0.0135
     31 C          60.3604   89.2683   10.7968 C.ar    1  UNL1       -0.0012
     32 C          59.7859   90.5578   10.2897 C.ar    1  UNL1       -0.0002
     33 C          59.3888   90.6868    8.8490 C.ar    1  UNL1        0.0016
     34 C          59.5662   89.5263    7.9154 C.ar    1  UNL1        0.0214
     35 C          59.2680   89.3583    6.4550 C.ar    1  UNL1        0.0721
     36 C          59.6582   87.9650    6.0594 C.ar    1  UNL1        0.0805
     37 N          60.1975   87.2719    7.2754 N.ar    1  UNL1       -0.3241
     38 C          60.7047   85.8615    7.3340 C.3     1  UNL1        0.1305
     39 C          60.1407   88.2368    8.4224 C.ar    1  UNL1        0.0577
     40 C          58.6824   90.4007    5.5491 C.2     1  UNL1        0.2505
     41 O          57.2082   90.6765    5.5775 O.2     1  UNL1       -0.2699
     42 N          59.5709   91.1673    4.6148 N.am    1  UNL1       -0.2759
     43 C          58.9854   92.2096    3.7089 C.3     1  UNL1        0.0951
     44 C          59.8739   92.9761    2.7746 C.3     1  UNL1        0.0375
     45 C          61.3481   92.7003    2.7462 C.3     1  UNL1        0.0610
     46 C          61.9336   91.6579    3.6521 C.3     1  UNL1        0.0375
     47 C          61.0451   90.8914    4.5864 C.3     1  UNL1        0.0951
     48 N          62.2366   93.4668    1.8119 N.3     1  UNL1       -0.2715
     49 C          61.6735   94.5923    0.9956 C.3     1  UNL1        0.0896
     50 C          62.5620   95.3588    0.0613 C.3     1  UNL1        0.0897
     51 N          64.0137   94.9998   -0.0566 N.3     1  UNL1       -0.2691
     52 C          64.9022   95.7664   -0.9909 C.3     1  UNL1        0.0897
     53 C          64.5768   93.8744    0.7596 C.3     1  UNL1        0.0897
     54 C          63.6883   93.1079    1.6939 C.3     1  UNL1        0.0896
     55 C          64.7839   93.0853   12.2395 C.3     1  UNL1        0.1177
     56 C          65.8256   93.4990   11.2426 C.ar    1  UNL1       -0.0025
     57 C          65.9457   94.9380   10.8368 C.ar    1  UNL1       -0.0026
     58 C          66.9873   95.3518    9.8399 C.ar    1  UNL1       -0.0003
     59 C          67.9089   94.3265    9.2488 C.ar    1  UNL1       -0.0000
     60 C          67.7888   92.8873    9.6546 C.ar    1  UNL1       -0.0003
     61 C          66.7471   92.4736   10.6515 C.ar    1  UNL1       -0.0026
@<TRIPOS>BOND
     1    18    19    2
     2    19    17    1
     3    17     1    1
     4     1     2    1
     5     2     3    1
     6     3     4    2
     7     3     5   am
     8     5     6    1
     9     6    20    1
    10    20    21    1
    11    21    22   ar
    12    22    23   ar
    13    23    24   ar
    14    24    25    1
    15    24    26   ar
    16    26    27   ar
    17     6     7    1
    18     7     8    2
    19     7     9   am
    20     9    29    1
    21    29    30    1
    22    30    31   ar
    23    31    32   ar
    24    32    33   ar
    25    33    34   ar
    26    34    35   ar
    27    35    40    1
    28    40    41    2
    29    40    42   am
    30    42    43    1
    31    43    44    1
    32    44    45    1
    33    45    48    1
    34    48    49    1
    35    49    50    1
    36    50    51    1
    37    51    52    1
    38    51    53    1
    39    53    54    1
    40    45    46    1
    41    46    47    1
    42    35    36   ar
    43    36    37   ar
    44    37    38    1
    45    37    39   ar
    46     9    10    1
    47    11    10    1
    48    11    12    1
    49    12    13   am
    50    13    14    2
    51    13    15   am
    52    15    55    1
    53    55    56    1
    54    56    57   ar
    55    57    58   ar
    56    58    59   ar
    57    59    60   ar
    58    60    61   ar
    59    12     1    1
    60    61    56   ar
    61    11     5    1
    62    27    21   ar
    63    39    30   ar
    64    39    34   ar
    65    47    42    1
    66    54    48    1
    67    25    28    1
    68    15    16    1
@<TRIPOS>MOLECULE
*****
 61 68 0 0 0
SMALL
GASTEIGER

@<TRIPOS>ATOM
      1 N          63.9996   86.3516   15.7962 N.3     1  UNL1       -0.1862
      2 C          64.1616   84.8885   16.0843 C.3     1  UNL1        0.1775
      3 C          63.9609   83.8820   14.9904 C.2     1  UNL1        0.2452
      4 O          64.1229   82.4188   15.2786 O.2     1  UNL1       -0.2732
      5 N          63.5981   84.3386   13.6085 N.am    1  UNL1       -0.2541
      6 C          63.3974   83.3320   12.5146 C.3     1  UNL1        0.1577
      7 C          63.0346   83.7886   11.1326 C.2     1  UNL1        0.2445
      8 O          62.8339   82.7820   10.0387 O.2     1  UNL1       -0.2731
      9 N          62.8726   85.2518   10.8445 N.am    1  UNL1       -0.2705
     10 C          63.0733   86.2583   11.9384 C.3     1  UNL1        0.1359
     11 C          63.4361   85.8016   13.3204 C.3     1  UNL1        0.1908
     12 N          63.6368   86.8082   14.4143 N.am    1  UNL1       -0.1863
     13 C          63.4748   88.2714   14.1261 C.2     1  UNL1        0.3191
     14 O          63.1120   88.7279   12.7442 O.2     1  UNL1       -0.2512
     15 N          63.6755   89.2779   15.2200 N.am    1  UNL1       -0.2836
     16 H          63.9136   88.9782   16.1271 H       1  UNL1        0.1513
     17 C          64.2003   87.3582   16.8901 C.3     1  UNL1        0.1188
     18 C          62.4503   86.6840   18.6881 C.2     1  UNL1       -0.0034
     19 C          63.0592   87.7223   17.7930 C.2     1  UNL1       -0.0071
     20 C          63.5594   81.8689   12.8027 C.3     1  UNL1        0.0556
     21 C          62.3789   81.0565   13.2458 C.ar    1  UNL1       -0.0198
     22 C          61.1597   81.7402   13.7899 C.ar    1  UNL1       -0.0011
     23 C          59.9791   80.9278   14.2330 C.ar    1  UNL1        0.0363
     24 C          60.0178   79.4317   14.1320 C.ar    1  UNL1        0.1337
     25 O          58.8373   78.6193   14.5751 O.3     1  UNL1       -0.5055
     26 C          61.2371   78.7480   13.5878 C.ar    1  UNL1        0.0363
     27 C          62.4176   79.5604   13.1447 C.ar    1  UNL1       -0.0011
     28 H          58.0757   79.0464   14.9150 H       1  UNL1        0.2922
     29 C          62.5098   85.7083    9.4625 C.3     1  UNL1        0.1217
     30 C          61.9348   87.0777    9.2518 C.ar    1  UNL1        0.0135
     31 C          62.3797   88.2192   10.1171 C.ar    1  UNL1       -0.0012
     32 C          61.8048   89.5885    9.9064 C.ar    1  UNL1       -0.0002
     33 C          60.7849   89.8162    8.8304 C.ar    1  UNL1        0.0016
     34 C          60.3399   88.6747    7.9650 C.ar    1  UNL1        0.0214
     35 C          59.3579   88.5960    6.8339 C.ar    1  UNL1        0.0721
     36 C          59.3259   87.1781    6.3456 C.ar    1  UNL1        0.0805
     37 N          60.2882   86.3805    7.1748 N.ar    1  UNL1       -0.3241
     38 C          60.5737   84.9152    7.0289 C.3     1  UNL1        0.1305
     39 C          60.9149   87.3054    8.1757 C.ar    1  UNL1        0.0577
     40 C          58.5497   89.7353    6.2871 C.2     1  UNL1        0.2505
     41 O          57.1164   89.9027    6.6968 O.2     1  UNL1       -0.2699
     42 N          59.1747   90.7072    5.3308 N.am    1  UNL1       -0.2759
     43 C          58.3667   91.8465    4.7840 C.3     1  UNL1        0.0951
     44 C          58.9917   92.8184    3.8276 C.3     1  UNL1        0.0375
     45 C          60.4250   92.6511    3.4180 C.3     1  UNL1        0.0610
     46 C          61.2331   91.5117    3.9648 C.3     1  UNL1        0.0375
     47 C          60.6080   90.5398    4.9212 C.3     1  UNL1        0.0951
     48 N          61.0500   93.6230    2.4616 N.3     1  UNL1       -0.2715
     49 C          62.3957   93.3300    1.8671 C.3     1  UNL1        0.0896
     50 C          63.0208   94.3020    0.9108 C.3     1  UNL1        0.0897
     51 N          62.3001   95.5668    0.5489 N.3     1  UNL1       -0.2691
     52 C          62.9252   96.5387   -0.4074 C.3     1  UNL1        0.0897
     53 C          60.9545   95.8598    1.1434 C.3     1  UNL1        0.0897
     54 C          60.3294   94.8878    2.0998 C.3     1  UNL1        0.0896
     55 C          63.5135   90.7410   14.9319 C.3     1  UNL1        0.1177
     56 C          64.5524   91.4670   14.1297 C.ar    1  UNL1       -0.0025
     57 C          65.8096   91.9485   14.7912 C.ar    1  UNL1       -0.0026
     58 C          66.8485   92.6745   13.9890 C.ar    1  UNL1       -0.0003
     59 C          66.6302   92.9190   12.5253 C.ar    1  UNL1       -0.0000
     60 C          65.3730   92.4375   11.8637 C.ar    1  UNL1       -0.0003
     61 C          64.3341   91.7115   12.6659 C.ar    1  UNL1       -0.0026
@<TRIPOS>BOND
     1    18    19    2
     2    19    17    1
     3    17     1    1
     4     1     2    1
     5     2     3    1
     6     3     4    2
     7     3     5   am
     8     5     6    1
     9     6    20    1
    10    20    21    1
    11    21    22   ar
    12    22    23   ar
    13    23    24   ar
    14    24    25    1
    15    24    26   ar
    16    26    27   ar
    17     6     7    1
    18     7     8    2
    19     7     9   am
    20     9    29    1
    21    29    30    1
    22    30    31   ar
    23    31    32   ar
    24    32    33   ar
    25    33    34   ar
    26    34    35   ar
    27    35    40    1
    28    40    41    2
    29    40    42   am
    30    42    43    1
    31    43    44    1
    32    44    45    1
    33    45    48    1
    34    48    49    1
    35    49    50    1
    36    50    51    1
    37    51    52    1
    38    51    53    1
    39    53    54    1
    40    45    46    1
    41    46    47    1
    42    35    36   ar
    43    36    37   ar
    44    37    38    1
    45    37    39   ar
    46     9    10    1
    47    11    10    1
    48    11    12    1
    49    12    13   am
    50    13    14    2
    51    13    15   am
    52    15    55    1
    53    55    56    1
    54    56    57   ar
    55    57    58   ar
    56    58    59   ar
    57    59    60   ar
    58    60    61   ar
    59    12     1    1
    60    61    56   ar
    61    11     5    1
    62    27    21   ar
    63    39    30   ar
    64    39    34   ar
    65    47    42    1
    66    54    48    1
    67    25    28    1
    68    15    16    1
