@<TRIPOS>MOLECULE
*****
 38 41 0 0 0
SMALL
GASTEIGER

@<TRIPOS>ATOM
      1 N          58.7174   90.9062   11.1017 N.pl3   1  UNL1       -0.3275
      2 C          59.8961   90.0293   11.4047 C.ar    1  UNL1        0.2134
      3 N          59.8238   88.5557   11.1336 N.ar    1  UNL1       -0.2169
      4 C          61.0024   87.6787   11.4365 C.ar    1  UNL1        0.0810
      5 C          62.2533   88.2752   12.0105 C.ar    1  UNL1        0.0309
      6 C          62.3256   89.7488   12.2815 C.ar    1  UNL1        0.0867
      7 N          61.1469   90.6258   11.9786 N.ar    1  UNL1       -0.2141
      8 C          63.2473   87.1690   12.2054 C.3     1  UNL1        0.1248
      9 N          62.6107   85.8887   11.7518 N.am    1  UNL1       -0.2543
     10 C          63.2495   84.5316   11.7702 C.2     1  UNL1        0.3047
     11 O          64.6521   84.3696   12.2765 O.2     1  UNL1       -0.2526
     12 N          62.4855   83.3365   11.2824 N.am    1  UNL1       -0.2813
     13 C          61.2233   86.2037   11.2767 C.3     1  UNL1        0.1409
     14 H          57.8964   90.5147   10.7250 H       1  UNL1        0.1452
     15 H          58.7648   91.8734   11.2796 H       1  UNL1        0.1452
     16 H          61.5649   83.4427   10.9501 H       1  UNL1        0.1512
     17 C          63.5765   90.3454   12.8555 C.ar    1  UNL1        0.0621
     18 C          64.3744   91.3299   12.0530 C.ar    1  UNL1        0.0629
     19 CL         63.9214   91.7178   10.6767 Cl      1  UNL1       -0.0821
     20 C          65.6253   91.9266   12.6269 C.ar    1  UNL1        0.0230
     21 C          66.0782   91.5386   14.0032 C.ar    1  UNL1        0.0615
     22 CL         67.3290   92.1353   14.5771 Cl      1  UNL1       -0.0821
     23 C          65.2802   90.5541   14.8057 C.ar    1  UNL1        0.0484
     24 C          64.0294   89.9574   14.2318 C.ar    1  UNL1        0.1417
     25 O          63.2314   88.9729   15.0343 O.3     1  UNL1       -0.4732
     26 C          63.1889   89.0835   16.5296 C.3     1  UNL1        0.2316
     27 C          63.0392   87.8494   17.3690 C.3     1  UNL1        0.1747
     28 N          62.9838   86.5002   16.7158 N.ar    1  UNL1       -0.2432
     29 C          64.1507   85.7449   16.1521 C.ar    1  UNL1        0.1264
     30 C          63.6398   84.4473   15.5996 C.ar    1  UNL1        0.1796
     31 F          64.4664   83.3832   14.9405 F       1  UNL1       -0.2008
     32 C          62.1571   84.4007   15.8218 C.ar    1  UNL1        0.1512
     33 N          61.7517   85.6695   16.5117 N.ar    1  UNL1       -0.1651
     34 C          63.1243   81.9794   11.3008 C.3     1  UNL1        0.1951
     35 C          62.6039   80.9180   12.2241 C.3     1  UNL1        0.4155
     36 F          62.0834   79.8566   13.1474 F       1  UNL1       -0.1682
     37 F          62.7888   79.8904   11.1471 F       1  UNL1       -0.1682
     38 F          62.4189   81.9455   13.3012 F       1  UNL1       -0.1682
@<TRIPOS>BOND
     1     1     2    1
     2     2     3   ar
     3     3     4   ar
     4     4     5   ar
     5     5     6   ar
     6     6    17    1
     7    17    18   ar
     8    18    19    1
     9    18    20   ar
    10    20    21   ar
    11    21    22    1
    12    21    23   ar
    13    23    24   ar
    14    24    25    1
    15    25    26    1
    16    26    27    1
    17    27    28    1
    18    28    29   ar
    19    29    30   ar
    20    30    31    1
    21    30    32   ar
    22    32    33   ar
    23     6     7   ar
    24     5     8    1
    25     8     9    1
    26     9    10   am
    27    10    11    2
    28    10    12   am
    29    12    34    1
    30    34    35    1
    31    35    36    1
    32    35    37    1
    33    35    38    1
    34     9    13    1
    35     7     2   ar
    36    13     4    1
    37    24    17   ar
    38    33    28   ar
    39     1    14    1
    40     1    15    1
    41    12    16    1
@<TRIPOS>MOLECULE
*****
 38 41 0 0 0
SMALL
GASTEIGER

@<TRIPOS>ATOM
      1 N          63.9898   93.4601   17.7940 N.pl3   1  UNL1       -0.3275
      2 C          64.1590   92.3500   16.7993 C.ar    1  UNL1        0.2134
      3 N          63.6039   90.9880   17.0938 N.ar    1  UNL1       -0.2169
      4 C          63.7731   89.8780   16.0992 C.ar    1  UNL1        0.0810
      5 C          64.4974   90.1300   14.8101 C.ar    1  UNL1        0.0309
      6 C          65.0525   91.4920   14.5155 C.ar    1  UNL1        0.0867
      7 N          64.8833   92.6020   15.5102 N.ar    1  UNL1       -0.2141
      8 C          64.5093   88.8505   14.0273 C.3     1  UNL1        0.1248
      9 N          63.7923   87.8078   14.8326 N.am    1  UNL1       -0.2543
     10 C          63.5695   86.3805   14.4285 C.2     1  UNL1        0.3047
     11 O          64.0853   85.8852   13.1099 O.2     1  UNL1       -0.2526
     12 N          62.8308   85.4487   15.3428 N.am    1  UNL1       -0.2813
     13 C          63.3373   88.4428   16.1132 C.3     1  UNL1        0.1409
     14 H          63.5144   93.2946   18.6401 H       1  UNL1        0.1452
     15 H          64.3542   94.3540   17.6007 H       1  UNL1        0.1452
     16 H          62.4922   85.7738   16.2082 H       1  UNL1        0.1512
     17 C          65.7768   91.7441   13.2264 C.ar    1  UNL1        0.0621
     18 C          67.2718   91.8670   13.2178 C.ar    1  UNL1        0.0629
     19 CL         68.0423   91.7378   14.4982 Cl      1  UNL1       -0.0821
     20 C          67.9962   92.1190   11.9287 C.ar    1  UNL1        0.0230
     21 C          67.2256   92.2482   10.6483 C.ar    1  UNL1        0.0615
     22 CL         67.9500   92.5003    9.3592 Cl      1  UNL1       -0.0821
     23 C          65.7307   92.1253   10.6569 C.ar    1  UNL1        0.0484
     24 C          65.0063   91.8733   11.9460 C.ar    1  UNL1        0.1417
     25 O          63.5113   91.7504   11.9546 O.3     1  UNL1       -0.4732
     26 C          62.8162   90.9768   10.8737 C.3     1  UNL1        0.2316
     27 C          61.4915   90.3290   11.1485 C.3     1  UNL1        0.1747
     28 N          61.2684   88.8922   10.7799 N.ar    1  UNL1       -0.2432
     29 C          60.6102   88.3955    9.5269 C.ar    1  UNL1        0.1264
     30 C          60.5993   86.8961    9.5721 C.ar    1  UNL1        0.1796
     31 F          60.0358   85.9864    8.5210 F       1  UNL1       -0.2008
     32 C          61.2508   86.4664   10.8530 C.ar    1  UNL1        0.1512
     33 N          61.6643   87.7000   11.5995 N.ar    1  UNL1       -0.1651
     34 C          62.6080   84.0215   14.9385 C.3     1  UNL1        0.1951
     35 C          63.6058   83.3263   14.0604 C.3     1  UNL1        0.4155
     36 F          64.6036   82.6311   13.1823 F       1  UNL1       -0.1682
     37 F          62.6054   83.3018   12.9430 F       1  UNL1       -0.1682
     38 F          64.6063   83.3507   15.1778 F       1  UNL1       -0.1682
@<TRIPOS>BOND
     1     1     2    1
     2     2     3   ar
     3     3     4   ar
     4     4     5   ar
     5     5     6   ar
     6     6    17    1
     7    17    18   ar
     8    18    19    1
     9    18    20   ar
    10    20    21   ar
    11    21    22    1
    12    21    23   ar
    13    23    24   ar
    14    24    25    1
    15    25    26    1
    16    26    27    1
    17    27    28    1
    18    28    29   ar
    19    29    30   ar
    20    30    31    1
    21    30    32   ar
    22    32    33   ar
    23     6     7   ar
    24     5     8    1
    25     8     9    1
    26     9    10   am
    27    10    11    2
    28    10    12   am
    29    12    34    1
    30    34    35    1
    31    35    36    1
    32    35    37    1
    33    35    38    1
    34     9    13    1
    35     7     2   ar
    36    13     4    1
    37    24    17   ar
    38    33    28   ar
    39     1    14    1
    40     1    15    1
    41    12    16    1
@<TRIPOS>MOLECULE
*****
 38 41 0 0 0
SMALL
GASTEIGER

@<TRIPOS>ATOM
      1 N          62.9845   88.0671   18.3960 N.pl3   1  UNL1       -0.3275
      2 C          63.1690   87.7450   16.9426 C.ar    1  UNL1        0.2134
      3 N          63.0868   86.3226   16.4735 N.ar    1  UNL1       -0.2169
      4 C          63.2713   86.0004   15.0202 C.ar    1  UNL1        0.0810
      5 C          63.5380   87.1005   14.0360 C.ar    1  UNL1        0.0309
      6 C          63.6202   88.5229   14.5051 C.ar    1  UNL1        0.0867
      7 N          63.4356   88.8450   15.9585 N.ar    1  UNL1       -0.2141
      8 C          63.6766   86.4825   12.6762 C.3     1  UNL1        0.1248
      9 N          63.4956   85.0005   12.8201 N.am    1  UNL1       -0.2543
     10 C          63.5546   83.9932   11.7101 C.2     1  UNL1        0.3047
     11 O          63.8151   84.4423   10.3028 O.2     1  UNL1       -0.2526
     12 N          63.3532   82.5368   12.0075 N.am    1  UNL1       -0.2813
     13 C          63.2451   84.7024   14.2687 C.3     1  UNL1        0.1409
     14 H          62.8094   87.3451   19.0419 H       1  UNL1        0.1452
     15 H          63.0384   89.0007   18.7039 H       1  UNL1        0.1452
     16 H          63.1822   82.2420   12.9311 H       1  UNL1        0.1512
     17 C          63.8869   89.6231   13.5210 C.ar    1  UNL1        0.0621
     18 C          65.0609   90.5360   13.7167 C.ar    1  UNL1        0.0629
     19 CL         65.9681   90.3487   14.8964 Cl      1  UNL1       -0.0821
     20 C          65.3276   91.6362   12.7326 C.ar    1  UNL1        0.0230
     21 C          64.4203   91.8234   11.5529 C.ar    1  UNL1        0.0615
     22 CL         64.6871   92.9237   10.5688 Cl      1  UNL1       -0.0821
     23 C          63.2463   90.9105   11.3572 C.ar    1  UNL1        0.0484
     24 C          62.9796   89.8103   12.3413 C.ar    1  UNL1        0.1417
     25 O          61.8056   88.8974   12.1456 O.3     1  UNL1       -0.4732
     26 C          60.6883   89.2984   11.2286 C.3     1  UNL1        0.2316
     27 C          59.7022   88.2724   10.7546 C.3     1  UNL1        0.1747
     28 N          60.0422   87.3854    9.5937 N.ar    1  UNL1       -0.2432
     29 C          61.3610   86.7116    9.3556 C.ar    1  UNL1        0.1264
     30 C          61.2569   85.9262    8.0818 C.ar    1  UNL1        0.1796
     31 F          62.3449   85.0978    7.4653 F       1  UNL1       -0.2008
     32 C          59.8738   86.1147    7.5328 C.ar    1  UNL1        0.1512
     33 N          59.1230   87.0165    8.4672 N.ar    1  UNL1       -0.1651
     34 C          63.4123   81.5296   10.8974 C.3     1  UNL1        0.1951
     35 C          62.9621   80.1195   11.1396 C.3     1  UNL1        0.4155
     36 F          62.5118   78.7093   11.3818 F       1  UNL1       -0.1682
     37 F          63.0568   80.3434   12.6198 F       1  UNL1       -0.1682
     38 F          62.8673   79.8954    9.6594 F       1  UNL1       -0.1682
@<TRIPOS>BOND
     1     1     2    1
     2     2     3   ar
     3     3     4   ar
     4     4     5   ar
     5     5     6   ar
     6     6    17    1
     7    17    18   ar
     8    18    19    1
     9    18    20   ar
    10    20    21   ar
    11    21    22    1
    12    21    23   ar
    13    23    24   ar
    14    24    25    1
    15    25    26    1
    16    26    27    1
    17    27    28    1
    18    28    29   ar
    19    29    30   ar
    20    30    31    1
    21    30    32   ar
    22    32    33   ar
    23     6     7   ar
    24     5     8    1
    25     8     9    1
    26     9    10   am
    27    10    11    2
    28    10    12   am
    29    12    34    1
    30    34    35    1
    31    35    36    1
    32    35    37    1
    33    35    38    1
    34     9    13    1
    35     7     2   ar
    36    13     4    1
    37    24    17   ar
    38    33    28   ar
    39     1    14    1
    40     1    15    1
    41    12    16    1
@<TRIPOS>MOLECULE
*****
 38 41 0 0 0
SMALL
GASTEIGER

@<TRIPOS>ATOM
      1 N          57.9167   88.4980   13.3865 N.pl3   1  UNL1       -0.3275
      2 C          59.1751   88.7443   12.6082 C.ar    1  UNL1        0.2134
      3 N          60.0555   89.9084   12.9545 N.ar    1  UNL1       -0.2169
      4 C          61.3139   90.1547   12.1763 C.ar    1  UNL1        0.0810
      5 C          61.6920   89.2369   11.0516 C.ar    1  UNL1        0.0309
      6 C          60.8117   88.0729   10.7053 C.ar    1  UNL1        0.0867
      7 N          59.5532   87.8266   11.4836 N.ar    1  UNL1       -0.2141
      8 C          62.9832   89.7277   10.4669 C.3     1  UNL1        0.1248
      9 N          63.4031   90.9488   11.2302 N.am    1  UNL1       -0.2543
     10 C          64.6379   91.7631   10.9809 C.2     1  UNL1        0.3047
     11 O          65.5828   91.3754    9.8823 O.2     1  UNL1       -0.2526
     12 N          64.9279   92.9650   11.8302 N.am    1  UNL1       -0.2813
     13 C          62.3714   91.2127   12.2867 C.3     1  UNL1        0.1409
     14 H          57.6686   89.1004   14.1246 H       1  UNL1        0.1452
     15 H          57.3388   87.7340   13.1592 H       1  UNL1        0.1452
     16 H          64.3078   93.2194   12.5512 H       1  UNL1        0.1512
     17 C          61.1897   87.1551    9.5806 C.ar    1  UNL1        0.0621
     18 C          60.4876   87.2595    8.2592 C.ar    1  UNL1        0.0629
     19 CL         59.4076   88.2816    8.0624 Cl      1  UNL1       -0.0821
     20 C          60.8656   86.3417    7.1345 C.ar    1  UNL1        0.0230
     21 C          61.9456   85.3196    7.3313 C.ar    1  UNL1        0.0615
     22 CL         62.3235   84.4018    6.2067 Cl      1  UNL1       -0.0821
     23 C          62.6477   85.2152    8.6528 C.ar    1  UNL1        0.0484
     24 C          62.2697   86.1330    9.7774 C.ar    1  UNL1        0.1417
     25 O          62.9718   86.0286   11.0989 O.3     1  UNL1       -0.4732
     26 C          62.3653   85.2221   12.2087 C.3     1  UNL1        0.2316
     27 C          63.2254   84.3036   13.0250 C.3     1  UNL1        0.1747
     28 N          62.8982   82.8419   13.1033 N.ar    1  UNL1       -0.2432
     29 C          63.0759   81.8384   12.0026 C.ar    1  UNL1        0.1264
     30 C          62.6233   80.5032   12.5151 C.ar    1  UNL1        0.1796
     31 F          62.6274   79.2158   11.7454 F       1  UNL1       -0.2008
     32 C          62.1659   80.6816   13.9325 C.ar    1  UNL1        0.1512
     33 N          62.3358   82.1270   14.2960 N.ar    1  UNL1       -0.1651
     34 C          66.1628   93.7792   11.5807 C.3     1  UNL1        0.1951
     35 C          66.0618   95.0962   10.8699 C.3     1  UNL1        0.4155
     36 F          65.9608   96.4132   10.1591 F       1  UNL1       -0.1682
     37 F          66.1055   94.3867    9.5491 F       1  UNL1       -0.1682
     38 F          66.0181   95.8059   12.1908 F       1  UNL1       -0.1682
@<TRIPOS>BOND
     1     1     2    1
     2     2     3   ar
     3     3     4   ar
     4     4     5   ar
     5     5     6   ar
     6     6    17    1
     7    17    18   ar
     8    18    19    1
     9    18    20   ar
    10    20    21   ar
    11    21    22    1
    12    21    23   ar
    13    23    24   ar
    14    24    25    1
    15    25    26    1
    16    26    27    1
    17    27    28    1
    18    28    29   ar
    19    29    30   ar
    20    30    31    1
    21    30    32   ar
    22    32    33   ar
    23     6     7   ar
    24     5     8    1
    25     8     9    1
    26     9    10   am
    27    10    11    2
    28    10    12   am
    29    12    34    1
    30    34    35    1
    31    35    36    1
    32    35    37    1
    33    35    38    1
    34     9    13    1
    35     7     2   ar
    36    13     4    1
    37    24    17   ar
    38    33    28   ar
    39     1    14    1
    40     1    15    1
    41    12    16    1
@<TRIPOS>MOLECULE
*****
 38 41 0 0 0
SMALL
GASTEIGER

@<TRIPOS>ATOM
      1 N          57.9826   88.4928   13.4528 N.pl3   1  UNL1       -0.3275
      2 C          59.2352   88.7406   12.6656 C.ar    1  UNL1        0.2134
      3 N          60.1132   89.9095   13.0015 N.ar    1  UNL1       -0.2169
      4 C          61.3658   90.1573   12.2144 C.ar    1  UNL1        0.0810
      5 C          61.7403   89.2363   11.0912 C.ar    1  UNL1        0.0309
      6 C          60.8623   88.0675   10.7552 C.ar    1  UNL1        0.0867
      7 N          59.6097   87.8197   11.5425 N.ar    1  UNL1       -0.2141
      8 C          63.0259   89.7296   10.4963 C.3     1  UNL1        0.1248
      9 N          63.4459   90.9555   11.2519 N.am    1  UNL1       -0.2543
     10 C          64.6760   91.7734   10.9914 C.2     1  UNL1        0.3047
     11 O          65.6154   91.3848    9.8884 O.2     1  UNL1       -0.2526
     12 N          64.9667   92.9800   11.8338 N.am    1  UNL1       -0.2813
     13 C          62.4199   91.2198   12.3137 C.3     1  UNL1        0.1409
     14 H          57.7368   89.0973   14.1900 H       1  UNL1        0.1452
     15 H          57.4063   87.7257   13.2323 H       1  UNL1        0.1452
     16 H          64.3502   93.2351   12.5577 H       1  UNL1        0.1512
     17 C          61.2368   87.1464    9.6320 C.ar    1  UNL1        0.0621
     18 C          60.5623   87.2769    8.2986 C.ar    1  UNL1        0.0629
     19 CL         59.5134   88.3284    8.0884 Cl      1  UNL1       -0.0821
     20 C          60.9367   86.3559    7.1754 C.ar    1  UNL1        0.0230
     21 C          61.9856   85.3045    7.3857 C.ar    1  UNL1        0.0615
     22 CL         62.3600   84.3835    6.2625 Cl      1  UNL1       -0.0821
     23 C          62.6601   85.1740    8.7191 C.ar    1  UNL1        0.0484
     24 C          62.2857   86.0950    9.8423 C.ar    1  UNL1        0.1417
     25 O          62.9602   85.9645   11.1758 O.3     1  UNL1       -0.4732
     26 C          62.8504   84.6843   11.9497 C.3     1  UNL1        0.2316
     27 C          63.7619   84.4311   13.1137 C.3     1  UNL1        0.1747
     28 N          63.6940   85.3130   14.3252 N.ar    1  UNL1       -0.2432
     29 C          63.2523   84.8951   15.6964 C.ar    1  UNL1        0.1264
     30 C          63.3412   86.0915   16.5968 C.ar    1  UNL1        0.1796
     31 F          62.9944   86.1247   18.0558 F       1  UNL1       -0.2008
     32 C          63.8380   87.2488   15.7821 C.ar    1  UNL1        0.1512
     33 N          64.0560   86.7677   14.3781 N.ar    1  UNL1       -0.1651
     34 C          66.1969   93.7979   11.5732 C.3     1  UNL1        0.1951
     35 C          66.0917   95.0923   10.8227 C.3     1  UNL1        0.4155
     36 F          65.9865   96.3868   10.0722 F       1  UNL1       -0.1682
     37 F          65.9670   95.8345   12.1202 F       1  UNL1       -0.1682
     38 F          66.2164   94.3502    9.5251 F       1  UNL1       -0.1682
@<TRIPOS>BOND
     1     1     2    1
     2     2     3   ar
     3     3     4   ar
     4     4     5   ar
     5     5     6   ar
     6     6    17    1
     7    17    18   ar
     8    18    19    1
     9    18    20   ar
    10    20    21   ar
    11    21    22    1
    12    21    23   ar
    13    23    24   ar
    14    24    25    1
    15    25    26    1
    16    26    27    1
    17    27    28    1
    18    28    29   ar
    19    29    30   ar
    20    30    31    1
    21    30    32   ar
    22    32    33   ar
    23     6     7   ar
    24     5     8    1
    25     8     9    1
    26     9    10   am
    27    10    11    2
    28    10    12   am
    29    12    34    1
    30    34    35    1
    31    35    36    1
    32    35    37    1
    33    35    38    1
    34     9    13    1
    35     7     2   ar
    36    13     4    1
    37    24    17   ar
    38    33    28   ar
    39     1    14    1
    40     1    15    1
    41    12    16    1
@<TRIPOS>MOLECULE
*****
 38 41 0 0 0
SMALL
GASTEIGER

@<TRIPOS>ATOM
      1 N          65.0073   82.0614   10.4422 N.pl3   1  UNL1       -0.3275
      2 C          64.1841   83.2696   10.7782 C.ar    1  UNL1        0.2134
      3 N          63.4826   84.0256    9.6890 N.ar    1  UNL1       -0.2169
      4 C          62.6595   85.2337   10.0249 C.ar    1  UNL1        0.0810
      5 C          62.5379   85.6858   11.4500 C.ar    1  UNL1        0.0309
      6 C          63.2394   84.9298   12.5391 C.ar    1  UNL1        0.0867
      7 N          64.0626   83.7216   12.2032 N.ar    1  UNL1       -0.2141
      8 C          61.6631   86.9041   11.4768 C.3     1  UNL1        0.1248
      9 N          61.2441   87.2048   10.0683 N.am    1  UNL1       -0.2543
     10 C          60.3638   88.3388    9.6334 C.2     1  UNL1        0.3047
     11 O          59.8184   89.2974   10.6500 O.2     1  UNL1       -0.2526
     12 N          60.0290   88.5143    8.1818 N.am    1  UNL1       -0.2813
     13 C          61.8599   86.1725    9.1710 C.3     1  UNL1        0.1409
     14 H          65.0871   81.7647    9.5069 H       1  UNL1        0.1452
     15 H          65.4678   81.5651   11.1570 H       1  UNL1        0.1452
     16 H          60.3870   87.8852    7.5145 H       1  UNL1        0.1512
     17 C          63.1179   85.3819   13.9643 C.ar    1  UNL1        0.0621
     18 C          62.5147   84.4702   14.9914 C.ar    1  UNL1        0.0629
     19 CL         62.0331   83.1066   14.5934 Cl      1  UNL1       -0.0821
     20 C          62.3931   84.9222   16.4165 C.ar    1  UNL1        0.0230
     21 C          62.8747   86.2859   16.8144 C.ar    1  UNL1        0.0615
     22 CL         62.7532   86.7379   18.2395 Cl      1  UNL1       -0.0821
     23 C          63.4779   87.1976   15.7873 C.ar    1  UNL1        0.0484
     24 C          63.5995   86.7456   14.3622 C.ar    1  UNL1        0.1417
     25 O          64.2027   87.6573   13.3350 O.3     1  UNL1       -0.4732
     26 C          63.8546   89.1163   13.3304 C.3     1  UNL1        0.2316
     27 C          64.4837   90.0406   14.3304 C.3     1  UNL1        0.1747
     28 N          65.1397   91.3088   13.8707 N.ar    1  UNL1       -0.2432
     29 C          64.9475   91.9675   12.5368 C.ar    1  UNL1        0.1264
     30 C          65.7921   93.2068   12.5059 C.ar    1  UNL1        0.1796
     31 F          65.9030   94.1698   11.3612 F       1  UNL1       -0.2008
     32 C          66.5062   93.3139   13.8206 C.ar    1  UNL1        0.1512
     33 N          66.1030   92.1409   14.6641 N.ar    1  UNL1       -0.1651
     34 C          59.1487   89.6484    7.7470 C.3     1  UNL1        0.1951
     35 C          59.0746   90.0270    6.2974 C.3     1  UNL1        0.4155
     36 F          59.0006   90.4057    4.8479 F       1  UNL1       -0.1682
     37 F          57.5776   89.9524    6.3544 F       1  UNL1       -0.1682
     38 F          60.5718   90.1018    6.2404 F       1  UNL1       -0.1682
@<TRIPOS>BOND
     1     1     2    1
     2     2     3   ar
     3     3     4   ar
     4     4     5   ar
     5     5     6   ar
     6     6    17    1
     7    17    18   ar
     8    18    19    1
     9    18    20   ar
    10    20    21   ar
    11    21    22    1
    12    21    23   ar
    13    23    24   ar
    14    24    25    1
    15    25    26    1
    16    26    27    1
    17    27    28    1
    18    28    29   ar
    19    29    30   ar
    20    30    31    1
    21    30    32   ar
    22    32    33   ar
    23     6     7   ar
    24     5     8    1
    25     8     9    1
    26     9    10   am
    27    10    11    2
    28    10    12   am
    29    12    34    1
    30    34    35    1
    31    35    36    1
    32    35    37    1
    33    35    38    1
    34     9    13    1
    35     7     2   ar
    36    13     4    1
    37    24    17   ar
    38    33    28   ar
    39     1    14    1
    40     1    15    1
    41    12    16    1
@<TRIPOS>MOLECULE
*****
 38 41 0 0 0
SMALL
GASTEIGER

@<TRIPOS>ATOM
      1 N          64.5330   90.8025   15.2470 N.pl3   1  UNL1       -0.3275
      2 C          64.0525   89.6531   14.4115 C.ar    1  UNL1        0.2134
      3 N          64.3688   88.2450   14.8204 N.ar    1  UNL1       -0.2169
      4 C          63.8883   87.0956   13.9850 C.ar    1  UNL1        0.0810
      5 C          63.0915   87.3542   12.7406 C.ar    1  UNL1        0.0309
      6 C          62.7753   88.7623   12.3317 C.ar    1  UNL1        0.0867
      7 N          63.2558   89.9118   13.1672 N.ar    1  UNL1       -0.2141
      8 C          62.7551   86.0299   12.1219 C.3     1  UNL1        0.1248
      9 N          63.3440   84.9527   12.9838 N.am    1  UNL1       -0.2543
     10 C          63.2492   83.4761   12.7376 C.2     1  UNL1        0.3047
     11 O          62.5118   82.9618   11.5369 O.2     1  UNL1       -0.2526
     12 N          63.8918   82.5137   13.6920 N.am    1  UNL1       -0.2813
     13 C          64.0443   85.6113   14.1353 C.3     1  UNL1        0.1409
     14 H          65.0560   90.6327   16.0636 H       1  UNL1        0.1452
     15 H          64.3255   91.7268   14.9786 H       1  UNL1        0.1452
     16 H          64.3757   82.8513   14.4801 H       1  UNL1        0.1512
     17 C          61.9785   89.0211   11.0874 C.ar    1  UNL1        0.0621
     18 C          60.6262   88.3943   10.9189 C.ar    1  UNL1        0.0629
     19 CL         60.0708   87.5088   11.9947 Cl      1  UNL1       -0.0821
     20 C          59.8294   88.6530    9.6746 C.ar    1  UNL1        0.0230
     21 C          60.3850   89.5385    8.5990 C.ar    1  UNL1        0.0615
     22 CL         59.5882   89.7972    7.3547 Cl      1  UNL1       -0.0821
     23 C          61.7373   90.1653    8.7675 C.ar    1  UNL1        0.0484
     24 C          62.5341   89.9066   10.0117 C.ar    1  UNL1        0.1417
     25 O          63.8864   90.5334   10.1802 O.3     1  UNL1       -0.4732
     26 C          64.0035   91.9364   10.6979 C.3     1  UNL1        0.2316
     27 C          65.2913   92.4060   11.3071 C.3     1  UNL1        0.1747
     28 N          66.3620   92.9942   10.4368 N.ar    1  UNL1       -0.2432
     29 C          66.3676   94.3788    9.8599 C.ar    1  UNL1        0.1264
     30 C          67.6243   94.5415    9.0572 C.ar    1  UNL1        0.1796
     31 F          68.0373   95.7721    8.3056 F       1  UNL1       -0.2008
     32 C          68.3954   93.2574    9.1380 C.ar    1  UNL1        0.1512
     33 N          67.6152   92.3012    9.9907 N.ar    1  UNL1       -0.1651
     34 C          63.7969   81.0371   13.4457 C.3     1  UNL1        0.1951
     35 C          62.4656   80.3494   13.5141 C.3     1  UNL1        0.4155
     36 F          61.1343   79.6617   13.5824 F       1  UNL1       -0.1682
     37 F          62.1404   81.1038   14.7691 F       1  UNL1       -0.1682
     38 F          62.7908   79.5950   12.2590 F       1  UNL1       -0.1682
@<TRIPOS>BOND
     1     1     2    1
     2     2     3   ar
     3     3     4   ar
     4     4     5   ar
     5     5     6   ar
     6     6    17    1
     7    17    18   ar
     8    18    19    1
     9    18    20   ar
    10    20    21   ar
    11    21    22    1
    12    21    23   ar
    13    23    24   ar
    14    24    25    1
    15    25    26    1
    16    26    27    1
    17    27    28    1
    18    28    29   ar
    19    29    30   ar
    20    30    31    1
    21    30    32   ar
    22    32    33   ar
    23     6     7   ar
    24     5     8    1
    25     8     9    1
    26     9    10   am
    27    10    11    2
    28    10    12   am
    29    12    34    1
    30    34    35    1
    31    35    36    1
    32    35    37    1
    33    35    38    1
    34     9    13    1
    35     7     2   ar
    36    13     4    1
    37    24    17   ar
    38    33    28   ar
    39     1    14    1
    40     1    15    1
    41    12    16    1
@<TRIPOS>MOLECULE
*****
 38 41 0 0 0
SMALL
GASTEIGER

@<TRIPOS>ATOM
      1 N          64.4310   90.8345   15.3775 N.pl3   1  UNL1       -0.3275
      2 C          63.9806   89.6963   14.5104 C.ar    1  UNL1        0.2134
      3 N          64.2953   88.2835   14.9042 N.ar    1  UNL1       -0.2169
      4 C          63.8450   87.1453   14.0373 C.ar    1  UNL1        0.0810
      5 C          63.0800   87.4198   12.7765 C.ar    1  UNL1        0.0309
      6 C          62.7654   88.8326   12.3827 C.ar    1  UNL1        0.0867
      7 N          63.2157   89.9708   13.2498 N.ar    1  UNL1       -0.2141
      8 C          62.7691   86.1039   12.1271 C.3     1  UNL1        0.1248
      9 N          63.3420   85.0161   12.9865 N.am    1  UNL1       -0.2543
     10 C          63.2636   83.5433   12.7133 C.2     1  UNL1        0.3047
     11 O          62.5620   83.0446   11.4849 O.2     1  UNL1       -0.2526
     12 N          63.8869   82.5691   13.6685 N.am    1  UNL1       -0.2813
     13 C          64.0069   85.6597   14.1670 C.3     1  UNL1        0.1409
     14 H          64.9331   90.6543   16.2049 H       1  UNL1        0.1452
     15 H          64.2245   91.7618   15.1190 H       1  UNL1        0.1452
     16 H          64.3474   82.8964   14.4748 H       1  UNL1        0.1512
     17 C          62.0004   89.1072   11.1219 C.ar    1  UNL1        0.0621
     18 C          60.6486   88.4908   10.9157 C.ar    1  UNL1        0.0629
     19 CL         60.0617   87.5998   11.9701 Cl      1  UNL1       -0.0821
     20 C          59.8835   88.7653    9.6550 C.ar    1  UNL1        0.0230
     21 C          60.4704   89.6563    8.6006 C.ar    1  UNL1        0.0615
     22 CL         59.7054   89.9308    7.3399 Cl      1  UNL1       -0.0821
     23 C          61.8223   90.2727    8.8069 C.ar    1  UNL1        0.0484
     24 C          62.5873   89.9981   10.0676 C.ar    1  UNL1        0.1417
     25 O          63.9391   90.6145   10.2739 O.3     1  UNL1       -0.4732
     26 C          64.0532   92.0566   10.6707 C.3     1  UNL1        0.2316
     27 C          65.4047   92.6951   10.7966 C.3     1  UNL1        0.1747
     28 N          66.0377   92.8509   12.1475 N.ar    1  UNL1       -0.2432
     29 C          66.8644   91.8204   12.8579 C.ar    1  UNL1        0.1264
     30 C          67.2928   92.3972   14.1747 C.ar    1  UNL1        0.1796
     31 F          68.1352   91.7081   15.2069 F       1  UNL1       -0.2008
     32 C          66.7309   93.7841   14.2780 C.ar    1  UNL1        0.1512
     33 N          65.9552   94.0645   13.0251 N.ar    1  UNL1       -0.1651
     34 C          63.8086   81.0963   13.3953 C.3     1  UNL1        0.1951
     35 C          62.4881   80.3888   13.4707 C.3     1  UNL1        0.4155
     36 F          61.1675   79.6813   13.5461 F       1  UNL1       -0.1682
     37 F          62.1595   81.1361   14.7291 F       1  UNL1       -0.1682
     38 F          62.8166   79.6414   12.2122 F       1  UNL1       -0.1682
@<TRIPOS>BOND
     1     1     2    1
     2     2     3   ar
     3     3     4   ar
     4     4     5   ar
     5     5     6   ar
     6     6    17    1
     7    17    18   ar
     8    18    19    1
     9    18    20   ar
    10    20    21   ar
    11    21    22    1
    12    21    23   ar
    13    23    24   ar
    14    24    25    1
    15    25    26    1
    16    26    27    1
    17    27    28    1
    18    28    29   ar
    19    29    30   ar
    20    30    31    1
    21    30    32   ar
    22    32    33   ar
    23     6     7   ar
    24     5     8    1
    25     8     9    1
    26     9    10   am
    27    10    11    2
    28    10    12   am
    29    12    34    1
    30    34    35    1
    31    35    36    1
    32    35    37    1
    33    35    38    1
    34     9    13    1
    35     7     2   ar
    36    13     4    1
    37    24    17   ar
    38    33    28   ar
    39     1    14    1
    40     1    15    1
    41    12    16    1
