@<TRIPOS>MOLECULE
*****
 44 47 0 0 0
SMALL
GASTEIGER

@<TRIPOS>ATOM
      1 N          61.8077   89.3214   10.6328 N.pl3   1  UNL1       -0.3043
      2 C          61.3348   89.5913   12.0305 C.3     1  UNL1        0.1123
      3 C          62.2343   90.2933   13.0042 C.3     1  UNL1        0.1149
      4 N          63.6067   90.7254   12.5802 N.am    1  UNL1       -0.2747
      5 C          64.5062   91.4274   13.5539 C.2     1  UNL1        0.2442
      6 O          64.0333   91.6973   14.9515 O.2     1  UNL1       -0.2731
      7 C          64.0796   90.4555   11.1825 C.3     1  UNL1        0.1149
      8 C          63.1801   89.7535   10.2088 C.3     1  UNL1        0.1123
      9 C          60.9674   87.1266    9.5252 C.ar    1  UNL1        0.0076
     10 C          60.0679   86.4247    8.5515 C.ar    1  UNL1        0.0279
     11 C          59.1090   87.2155    7.7117 C.ar    1  UNL1        0.1400
     12 F          58.2095   86.5135    6.7380 F       1  UNL1       -0.2042
     13 C          59.0497   88.7083    7.8457 C.ar    1  UNL1        0.0309
     14 C          59.9493   89.4103    8.8193 C.ar    1  UNL1        0.0165
     15 C          60.9081   88.6194    9.6591 C.ar    1  UNL1        0.0453
     16 C          61.9263   86.3358   10.3649 C.3     1  UNL1        0.0781
     17 N          61.5605   85.9628   11.7710 N.3     1  UNL1       -0.2951
     18 H          60.6012   85.6172   11.7439 H       1  UNL1        0.1235
     19 C          62.3692   84.9379   12.5096 C.3     1  UNL1        0.0692
     20 C          63.5767   85.3583   13.2940 C.3     1  UNL1        0.0230
     21 C          64.4312   84.3251   13.9666 C.3     1  UNL1        0.0431
     22 C          63.9939   82.8905   13.9909 C.2     1  UNL1        0.0504
     23 O          63.2018   82.3674   15.1524 O.co2   1  UNL1       -0.5492
     24 O          64.3489   81.9789   12.8538 O.co2   1  UNL1       -0.5492
     25 C          63.2509   85.9179    9.7986 C.3     1  UNL1        0.0203
     26 C          62.9384   84.6392    7.5586 C.3     1  UNL1        0.0001
     27 C          63.3592   84.6538    8.9983 C.3     1  UNL1        0.0017
     28 C          63.8884   83.4044    9.6377 C.3     1  UNL1        0.0001
     29 C          65.8786   91.8595   13.1299 C.3     1  UNL1        0.1564
     30 N          66.8582   92.3549   14.1521 N.am    1  UNL1       -0.2727
     31 C          67.7594   91.5024   14.9954 C.3     1  UNL1        0.0943
     32 C          68.5668   92.4104   15.8750 C.3     1  UNL1        0.0311
     33 C          68.1645   93.8241   15.5754 C.3     1  UNL1        0.0870
     34 C          67.1085   93.7898   14.5106 C.2     1  UNL1        0.2260
     35 O          66.4233   94.9811   13.9098 O.2     1  UNL1       -0.2749
     36 C          66.2714   91.7962   11.6836 C.3     1  UNL1        0.0564
     37 C          66.5385   93.0611   10.9229 C.ar    1  UNL1       -0.0094
     38 C          65.6927   94.2758   11.1668 C.ar    1  UNL1       -0.0025
     39 C          65.9598   95.5407   10.4062 C.ar    1  UNL1        0.0111
     40 C          67.0726   95.5910    9.4016 C.ar    1  UNL1        0.0585
     41 CL         67.3396   96.8560    8.6409 Cl      1  UNL1       -0.0822
     42 C          67.9183   94.3764    9.1577 C.ar    1  UNL1        0.0225
     43 C          67.6513   93.1115    9.9183 C.ar    1  UNL1        0.0546
     44 CL         68.4970   91.8969    9.6744 Cl      1  UNL1       -0.0825
@<TRIPOS>UNITY_ATOM_ATTR
23 1
charge -1
@<TRIPOS>BOND
     1    26    27    1
     2    27    28    1
     3    27    25    1
     4    16    25    1
     5    16    17    1
     6    17    19    1
     7    19    20    1
     8    20    21    1
     9    21    22    1
    10    22    23   ar
    11    22    24   ar
    12    16     9    1
    13     9    10   ar
    14    10    11   ar
    15    11    12    1
    16    11    13   ar
    17    13    14   ar
    18    14    15   ar
    19    15     1    1
    20     1     2    1
    21     2     3    1
    22     3     4    1
    23     4     5   am
    24     5     6    2
    25     5    29    1
    26    29    36    1
    27    36    37    1
    28    37    38   ar
    29    38    39   ar
    30    39    40   ar
    31    40    41    1
    32    40    42   ar
    33    42    43   ar
    34    43    44    1
    35    29    30    1
    36    30    31    1
    37    31    32    1
    38    32    33    1
    39    33    34    1
    40    34    35    2
    41     4     7    1
    42     7     8    1
    43    15     9   ar
    44     8     1    1
    45    43    37   ar
    46    34    30   am
    47    17    18    1
@<TRIPOS>MOLECULE
*****
 44 47 0 0 0
SMALL
GASTEIGER

@<TRIPOS>ATOM
      1 N          61.5652   86.2870    9.4604 N.pl3   1  UNL1       -0.3043
      2 C          62.7398   85.6362    8.7920 C.3     1  UNL1        0.1123
      3 C          63.5936   84.6663    9.5538 C.3     1  UNL1        0.1149
      4 N          63.2728   84.3472   10.9840 N.am    1  UNL1       -0.2747
      5 C          64.1265   83.3772   11.7457 C.2     1  UNL1        0.2442
      6 O          65.3012   82.7264   11.0774 O.2     1  UNL1       -0.2731
      7 C          62.0981   84.9980   11.6523 C.3     1  UNL1        0.1149
      8 C          61.2443   85.9679   10.8905 C.3     1  UNL1        0.1123
      9 C          60.6826   88.7032    9.0954 C.ar    1  UNL1        0.0076
     10 C          59.8289   89.6731    8.3336 C.ar    1  UNL1        0.0279
     11 C          59.0039   89.1967    7.1749 C.ar    1  UNL1        0.1400
     12 F          58.1501   90.1666    6.4131 F       1  UNL1       -0.2042
     13 C          59.0327   87.7504    6.7781 C.ar    1  UNL1        0.0309
     14 C          59.8864   86.7806    7.5399 C.ar    1  UNL1        0.0165
     15 C          60.7114   87.2570    8.6985 C.ar    1  UNL1        0.0453
     16 C          61.5076   89.1796   10.2540 C.3     1  UNL1        0.0781
     17 N          62.8719   89.7560   10.0166 N.3     1  UNL1       -0.2951
     18 H          63.0909   89.5988    9.0329 H       1  UNL1        0.1235
     19 C          63.1308   91.2078   10.2911 C.3     1  UNL1        0.0692
     20 C          64.2294   91.6091   11.2304 C.3     1  UNL1        0.0230
     21 C          65.2730   92.5915   10.7879 C.3     1  UNL1        0.0431
     22 C          65.9545   93.4673   11.7971 C.2     1  UNL1        0.0504
     23 O          65.7252   93.2419   13.2623 O.co2   1  UNL1       -0.5492
     24 O          66.8654   94.5683   11.3412 O.co2   1  UNL1       -0.5492
     25 C          60.9683   89.0795   11.6501 C.3     1  UNL1        0.0203
     26 C          59.2458   91.0192   11.5065 C.3     1  UNL1        0.0001
     27 C          59.6165   89.6429   11.9741 C.3     1  UNL1        0.0017
     28 C          58.6353   88.8302   12.7658 C.3     1  UNL1        0.0001
     29 C          63.8057   83.0582   13.1758 C.3     1  UNL1        0.1564
     30 N          62.6814   82.1199   13.5008 N.am    1  UNL1       -0.2727
     31 C          61.6379   82.3270   14.5582 C.3     1  UNL1        0.0943
     32 C          60.7148   81.1448   14.5365 C.3     1  UNL1        0.0311
     33 C          61.1879   80.2070   13.4657 C.3     1  UNL1        0.0870
     34 C          62.4033   80.8096   12.8255 C.2     1  UNL1        0.2260
     35 O          63.2006   80.2077   11.7067 O.2     1  UNL1       -0.2749
     36 C          64.6091   83.6774   14.2809 C.3     1  UNL1        0.0564
     37 C          64.2407   85.0329   14.8072 C.ar    1  UNL1       -0.0094
     38 C          64.7138   86.2669   14.0975 C.ar    1  UNL1       -0.0025
     39 C          64.3454   87.6224   14.6238 C.ar    1  UNL1        0.0111
     40 C          63.5040   87.7439   15.8597 C.ar    1  UNL1        0.0585
     41 CL         63.1357   89.0994   16.3859 Cl      1  UNL1       -0.0822
     42 C          63.0311   86.5099   16.5692 C.ar    1  UNL1        0.0225
     43 C          63.3994   85.1544   16.0430 C.ar    1  UNL1        0.0546
     44 CL         62.9264   83.9204   16.7526 Cl      1  UNL1       -0.0825
@<TRIPOS>UNITY_ATOM_ATTR
23 1
charge -1
@<TRIPOS>BOND
     1    26    27    1
     2    27    28    1
     3    27    25    1
     4    16    25    1
     5    16    17    1
     6    17    19    1
     7    19    20    1
     8    20    21    1
     9    21    22    1
    10    22    23   ar
    11    22    24   ar
    12    16     9    1
    13     9    10   ar
    14    10    11   ar
    15    11    12    1
    16    11    13   ar
    17    13    14   ar
    18    14    15   ar
    19    15     1    1
    20     1     2    1
    21     2     3    1
    22     3     4    1
    23     4     5   am
    24     5     6    2
    25     5    29    1
    26    29    36    1
    27    36    37    1
    28    37    38   ar
    29    38    39   ar
    30    39    40   ar
    31    40    41    1
    32    40    42   ar
    33    42    43   ar
    34    43    44    1
    35    29    30    1
    36    30    31    1
    37    31    32    1
    38    32    33    1
    39    33    34    1
    40    34    35    2
    41     4     7    1
    42     7     8    1
    43    15     9   ar
    44     8     1    1
    45    43    37   ar
    46    34    30   am
    47    17    18    1
@<TRIPOS>MOLECULE
*****
 44 47 0 0 0
SMALL
GASTEIGER

@<TRIPOS>ATOM
      1 N          64.4117   91.1076   12.8629 N.pl3   1  UNL1       -0.3043
      2 C          63.4815   91.7995   11.9111 C.3     1  UNL1        0.1123
      3 C          62.5563   90.9941   11.0478 C.3     1  UNL1        0.1149
      4 N          62.5612   89.4966   11.1365 N.am    1  UNL1       -0.2747
      5 C          61.6360   88.6912   10.2732 C.2     1  UNL1        0.2442
      6 O          60.7059   89.3831    9.3214 O.2     1  UNL1       -0.2731
      7 C          63.4914   88.8047   12.0883 C.3     1  UNL1        0.1149
      8 C          64.4167   89.6102   12.9516 C.3     1  UNL1        0.1123
      9 C          66.1542   93.0171   13.1234 C.ar    1  UNL1        0.0076
     10 C          67.0794   93.8225   13.9866 C.ar    1  UNL1        0.0279
     11 C          67.1873   93.5240   15.4527 C.ar    1  UNL1        0.1400
     12 F          68.1126   94.3295   16.3159 F       1  UNL1       -0.2042
     13 C          66.3701   92.4200   16.0555 C.ar    1  UNL1        0.0309
     14 C          65.4449   91.6146   15.1922 C.ar    1  UNL1        0.0165
     15 C          65.3370   91.9131   13.7262 C.ar    1  UNL1        0.0453
     16 C          66.0462   93.3156   11.6574 C.3     1  UNL1        0.0781
     17 N          65.4150   94.5961   11.1972 N.3     1  UNL1       -0.2951
     18 H          64.5168   94.6699   11.6748 H       1  UNL1        0.1235
     19 C          66.1255   95.9003   11.4073 C.3     1  UNL1        0.0692
     20 C          66.6115   96.6883   10.2270 C.3     1  UNL1        0.0230
     21 C          65.7322   96.8555    9.0234 C.3     1  UNL1        0.0431
     22 C          66.0790   96.1626    7.7391 C.2     1  UNL1        0.0504
     23 O          65.4749   96.6297    6.4479 O.co2   1  UNL1       -0.5492
     24 O          67.0299   95.0025    7.7458 O.co2   1  UNL1       -0.5492
     25 C          66.5694   92.3335   10.6515 C.3     1  UNL1        0.0203
     26 C          68.7748   92.4098    9.2802 C.3     1  UNL1        0.0001
     27 C          68.0441   92.0797   10.5480 C.3     1  UNL1        0.0017
     28 C          68.7882   91.4958   11.7122 C.3     1  UNL1        0.0001
     29 C          61.6410   87.1939   10.3619 C.3     1  UNL1        0.1564
     30 N          61.7104   86.3687    9.1111 N.am    1  UNL1       -0.2727
     31 C          62.9284   85.6719    8.5810 C.3     1  UNL1        0.0943
     32 C          62.5448   84.9680    7.3132 C.3     1  UNL1        0.0311
     33 C          61.0897   85.2298    7.0597 C.3     1  UNL1        0.0870
     34 C          60.5740   86.0955    8.1709 C.2     1  UNL1        0.2260
     35 O          59.1687   86.5995    8.3163 O.2     1  UNL1       -0.2749
     36 C          61.5765   86.5216   11.7013 C.3     1  UNL1        0.0564
     37 C          62.3524   85.2614   11.9460 C.ar    1  UNL1       -0.0094
     38 C          62.1003   84.0490   11.0995 C.ar    1  UNL1       -0.0025
     39 C          62.8762   82.7888   11.3442 C.ar    1  UNL1        0.0111
     40 C          63.9042   82.7410   12.4355 C.ar    1  UNL1        0.0585
     41 CL         64.6802   81.4808   12.6803 Cl      1  UNL1       -0.0822
     42 C          64.1564   83.9534   13.2820 C.ar    1  UNL1        0.0225
     43 C          63.3805   85.2136   13.0373 C.ar    1  UNL1        0.0546
     44 CL         63.6326   86.4259   13.8837 Cl      1  UNL1       -0.0825
@<TRIPOS>UNITY_ATOM_ATTR
23 1
charge -1
@<TRIPOS>BOND
     1    26    27    1
     2    27    28    1
     3    27    25    1
     4    16    25    1
     5    16    17    1
     6    17    19    1
     7    19    20    1
     8    20    21    1
     9    21    22    1
    10    22    23   ar
    11    22    24   ar
    12    16     9    1
    13     9    10   ar
    14    10    11   ar
    15    11    12    1
    16    11    13   ar
    17    13    14   ar
    18    14    15   ar
    19    15     1    1
    20     1     2    1
    21     2     3    1
    22     3     4    1
    23     4     5   am
    24     5     6    2
    25     5    29    1
    26    29    36    1
    27    36    37    1
    28    37    38   ar
    29    38    39   ar
    30    39    40   ar
    31    40    41    1
    32    40    42   ar
    33    42    43   ar
    34    43    44    1
    35    29    30    1
    36    30    31    1
    37    31    32    1
    38    32    33    1
    39    33    34    1
    40    34    35    2
    41     4     7    1
    42     7     8    1
    43    15     9   ar
    44     8     1    1
    45    43    37   ar
    46    34    30   am
    47    17    18    1
@<TRIPOS>MOLECULE
*****
 44 47 0 0 0
SMALL
GASTEIGER

@<TRIPOS>ATOM
      1 N          63.3587   85.7674   14.5816 N.pl3   1  UNL1       -0.3043
      2 C          62.8581   86.2811   15.8989 C.3     1  UNL1        0.1123
      3 C          63.0718   87.7177   16.2739 C.3     1  UNL1        0.1149
      4 N          63.7861   88.6405   15.3314 N.am    1  UNL1       -0.2747
      5 C          63.9998   90.0771   15.7064 C.2     1  UNL1        0.2442
      6 O          63.4992   90.5908   17.0237 O.2     1  UNL1       -0.2731
      7 C          64.2867   88.1268   14.0141 C.3     1  UNL1        0.1149
      8 C          64.0730   86.6901   13.6391 C.3     1  UNL1        0.1123
      9 C          62.6990   83.9761   12.8191 C.ar    1  UNL1        0.0076
     10 C          62.4853   82.5395   12.4443 C.ar    1  UNL1        0.0279
     11 C          62.7175   81.4576   13.4570 C.ar    1  UNL1        0.1400
     12 F          62.5038   80.0210   13.0820 F       1  UNL1       -0.2042
     13 C          63.1635   81.8122   14.8445 C.ar    1  UNL1        0.0309
     14 C          63.3772   83.2488   15.2193 C.ar    1  UNL1        0.0165
     15 C          63.1450   84.3307   14.2066 C.ar    1  UNL1        0.0453
     16 C          62.4668   85.0580   11.8064 C.3     1  UNL1        0.0781
     17 N          61.2379   85.9139   11.8918 N.3     1  UNL1       -0.2951
     18 H          61.3361   86.4872   12.7297 H       1  UNL1        0.1235
     19 C          60.8932   86.8454   10.7677 C.3     1  UNL1        0.0692
     20 C          61.3572   88.2713   10.8062 C.3     1  UNL1        0.0230
     21 C          60.3895   89.3827   10.5266 C.3     1  UNL1        0.0431
     22 C          59.5102   89.9053   11.6238 C.2     1  UNL1        0.0504
     23 O          59.2399   89.0618   12.8343 O.co2   1  UNL1       -0.5492
     24 O          58.9013   91.2715   11.5104 O.co2   1  UNL1       -0.5492
     25 C          63.4634   85.2840   10.7084 C.3     1  UNL1        0.0203
     26 C          62.9081   84.8431    8.2089 C.3     1  UNL1        0.0001
     27 C          63.4820   84.3767    9.5140 C.3     1  UNL1        0.0017
     28 C          64.0745   83.0032    9.6247 C.3     1  UNL1        0.0001
     29 C          64.7141   90.9999   14.7639 C.3     1  UNL1        0.1564
     30 N          66.0506   91.5680   15.1395 N.am    1  UNL1       -0.2727
     31 C          67.3617   91.2425   14.4875 C.3     1  UNL1        0.0943
     32 C          68.4321   92.0346   15.1780 C.3     1  UNL1        0.0311
     33 C          67.7825   92.8498   16.2567 C.3     1  UNL1        0.0870
     34 C          66.3107   92.5614   16.2329 C.2     1  UNL1        0.2260
     35 O          65.2799   93.1610   17.1427 O.2     1  UNL1       -0.2749
     36 C          64.0919   91.3546   13.4459 C.3     1  UNL1        0.0564
     37 C          64.8201   92.2527   12.4904 C.ar    1  UNL1       -0.0094
     38 C          65.7226   93.3305   13.0138 C.ar    1  UNL1       -0.0025
     39 C          66.4507   94.2287   12.0583 C.ar    1  UNL1        0.0111
     40 C          66.2764   94.0491   10.5793 C.ar    1  UNL1        0.0585
     41 CL         67.0045   94.9473    9.6237 Cl      1  UNL1       -0.0822
     42 C          65.3739   92.9714   10.0559 C.ar    1  UNL1        0.0225
     43 C          64.6458   92.0732   11.0114 C.ar    1  UNL1        0.0546
     44 CL         63.7433   90.9954   10.4880 Cl      1  UNL1       -0.0825
@<TRIPOS>UNITY_ATOM_ATTR
23 1
charge -1
@<TRIPOS>BOND
     1    26    27    1
     2    27    28    1
     3    27    25    1
     4    16    25    1
     5    16    17    1
     6    17    19    1
     7    19    20    1
     8    20    21    1
     9    21    22    1
    10    22    23   ar
    11    22    24   ar
    12    16     9    1
    13     9    10   ar
    14    10    11   ar
    15    11    12    1
    16    11    13   ar
    17    13    14   ar
    18    14    15   ar
    19    15     1    1
    20     1     2    1
    21     2     3    1
    22     3     4    1
    23     4     5   am
    24     5     6    2
    25     5    29    1
    26    29    36    1
    27    36    37    1
    28    37    38   ar
    29    38    39   ar
    30    39    40   ar
    31    40    41    1
    32    40    42   ar
    33    42    43   ar
    34    43    44    1
    35    29    30    1
    36    30    31    1
    37    31    32    1
    38    32    33    1
    39    33    34    1
    40    34    35    2
    41     4     7    1
    42     7     8    1
    43    15     9   ar
    44     8     1    1
    45    43    37   ar
    46    34    30   am
    47    17    18    1
@<TRIPOS>MOLECULE
*****
 44 47 0 0 0
SMALL
GASTEIGER

@<TRIPOS>ATOM
      1 N          61.9539   89.3362   10.9595 N.pl3   1  UNL1       -0.3043
      2 C          61.6965   89.1053   12.4191 C.3     1  UNL1        0.1123
      3 C          62.5425   89.7948   13.4481 C.3     1  UNL1        0.1149
      4 N          63.6460   90.7152   13.0175 N.am    1  UNL1       -0.2747
      5 C          64.4919   91.4046   14.0466 C.2     1  UNL1        0.2442
      6 O          64.2345   91.1738   15.5062 O.2     1  UNL1       -0.2731
      7 C          63.9034   90.9460   11.5579 C.3     1  UNL1        0.1149
      8 C          63.0574   90.2565   10.5289 C.3     1  UNL1        0.1123
      9 C          61.1844   87.1570    9.7723 C.ar    1  UNL1        0.0076
     10 C          60.3384   86.4676    8.7433 C.ar    1  UNL1        0.0279
     11 C          59.4159   87.2678    7.8724 C.ar    1  UNL1        0.1400
     12 F          58.5698   86.5783    6.8434 F       1  UNL1       -0.2042
     13 C          59.3393   88.7575    8.0305 C.ar    1  UNL1        0.0309
     14 C          60.1853   89.4469    9.0595 C.ar    1  UNL1        0.0165
     15 C          61.1079   88.6467    9.9304 C.ar    1  UNL1        0.0453
     16 C          62.1070   86.3568   10.6432 C.3     1  UNL1        0.0781
     17 N          61.7301   86.0639   12.0652 N.3     1  UNL1       -0.2951
     18 H          60.7691   85.7222   12.0507 H       1  UNL1        0.1235
     19 C          62.5285   85.0774   12.8648 C.3     1  UNL1        0.0692
     20 C          63.7065   85.5422   13.6688 C.3     1  UNL1        0.0230
     21 C          63.8173   85.1739   15.1187 C.3     1  UNL1        0.0431
     22 C          63.2344   86.0738   16.1677 C.2     1  UNL1        0.0504
     23 O          62.3688   85.5010   17.2506 O.co2   1  UNL1       -0.5492
     24 O          63.5171   87.5465   16.1339 O.co2   1  UNL1       -0.5492
     25 C          63.4066   85.8495   10.0922 C.3     1  UNL1        0.0203
     26 C          63.0332   84.6583    7.8136 C.3     1  UNL1        0.0001
     27 C          63.4321   84.6027    9.2586 C.3     1  UNL1        0.0017
     28 C          63.8563   83.3003    9.8699 C.3     1  UNL1        0.0001
     29 C          65.5954   92.3249   13.6160 C.3     1  UNL1        0.1564
     30 N          66.9158   92.2968   14.3270 N.am    1  UNL1       -0.2727
     31 C          68.2357   91.9219   13.7210 C.3     1  UNL1        0.0943
     32 C          69.2839   92.0320   14.7883 C.3     1  UNL1        0.0311
     33 C          68.6118   92.4749   16.0541 C.3     1  UNL1        0.0870
     34 C          67.1482   92.6386   15.7690 C.2     1  UNL1        0.2260
     35 O          66.1010   93.0685   16.7530 O.2     1  UNL1       -0.2749
     36 C          65.3784   93.2734   12.4743 C.3     1  UNL1        0.0564
     37 C          66.2931   93.2385   11.2860 C.ar    1  UNL1       -0.0094
     38 C          66.9779   91.9597   10.9041 C.ar    1  UNL1       -0.0025
     39 C          67.8926   91.9247    9.7158 C.ar    1  UNL1        0.0111
     40 C          68.1225   93.1686    8.9094 C.ar    1  UNL1        0.0585
     41 CL         69.0372   93.1336    7.7211 Cl      1  UNL1       -0.0822
     42 C          67.4376   94.4472    9.2914 C.ar    1  UNL1        0.0225
     43 C          66.5229   94.4822   10.4797 C.ar    1  UNL1        0.0546
     44 CL         65.8381   95.7609   10.8616 Cl      1  UNL1       -0.0825
@<TRIPOS>UNITY_ATOM_ATTR
23 1
charge -1
@<TRIPOS>BOND
     1    26    27    1
     2    27    28    1
     3    27    25    1
     4    16    25    1
     5    16    17    1
     6    17    19    1
     7    19    20    1
     8    20    21    1
     9    21    22    1
    10    22    23   ar
    11    22    24   ar
    12    16     9    1
    13     9    10   ar
    14    10    11   ar
    15    11    12    1
    16    11    13   ar
    17    13    14   ar
    18    14    15   ar
    19    15     1    1
    20     1     2    1
    21     2     3    1
    22     3     4    1
    23     4     5   am
    24     5     6    2
    25     5    29    1
    26    29    36    1
    27    36    37    1
    28    37    38   ar
    29    38    39   ar
    30    39    40   ar
    31    40    41    1
    32    40    42   ar
    33    42    43   ar
    34    43    44    1
    35    29    30    1
    36    30    31    1
    37    31    32    1
    38    32    33    1
    39    33    34    1
    40    34    35    2
    41     4     7    1
    42     7     8    1
    43    15     9   ar
    44     8     1    1
    45    43    37   ar
    46    34    30   am
    47    17    18    1
@<TRIPOS>MOLECULE
*****
 44 47 0 0 0
SMALL
GASTEIGER

@<TRIPOS>ATOM
      1 N          61.8795   89.4399   10.1845 N.pl3   1  UNL1       -0.3043
      2 C          62.6399   90.5529    9.5266 C.3     1  UNL1        0.1123
      3 C          63.6116   91.3712   10.3241 C.3     1  UNL1        0.1149
      4 N          63.8230   91.0765   11.7797 N.am    1  UNL1       -0.2747
      5 C          64.7947   91.8948   12.5772 C.2     1  UNL1        0.2442
      6 O          65.5551   93.0078   11.9193 O.2     1  UNL1       -0.2731
      7 C          63.0625   89.9634   12.4376 C.3     1  UNL1        0.1149
      8 C          62.0907   89.1451   11.6400 C.3     1  UNL1        0.1123
      9 C          60.9748   87.1238    9.4312 C.ar    1  UNL1        0.0076
     10 C          60.0031   86.3056    8.6337 C.ar    1  UNL1        0.0279
     11 C          58.9642   86.9852    7.7917 C.ar    1  UNL1        0.1400
     12 F          57.9924   86.1669    6.9941 F       1  UNL1       -0.2042
     13 C          58.8971   88.4830    7.7474 C.ar    1  UNL1        0.0309
     14 C          59.8688   89.3012    8.5450 C.ar    1  UNL1        0.0165
     15 C          60.9077   88.6216    9.3869 C.ar    1  UNL1        0.0453
     16 C          62.0137   86.4442   10.2732 C.3     1  UNL1        0.0781
     17 N          61.7582   86.2052   11.7318 N.3     1  UNL1       -0.2951
     18 H          60.8932   85.6683   11.7950 H       1  UNL1        0.1235
     19 C          62.7772   85.4841   12.5634 C.3     1  UNL1        0.0692
     20 C          62.5202   84.0750   13.0092 C.3     1  UNL1        0.0230
     21 C          63.6653   83.1206   13.1761 C.3     1  UNL1        0.0431
     22 C          63.4231   81.6414   13.1197 C.2     1  UNL1        0.0504
     23 O          62.7805   81.0322   11.9088 O.co2   1  UNL1       -0.5492
     24 O          63.8234   80.7713   14.2741 O.co2   1  UNL1       -0.5492
     25 C          63.3081   86.0036    9.6566 C.3     1  UNL1        0.0203
     26 C          63.8948   83.4746    9.5568 C.3     1  UNL1        0.0001
     27 C          63.3745   84.7147    8.8923 C.3     1  UNL1        0.0017
     28 C          62.9204   84.6657    7.4635 C.3     1  UNL1        0.0001
     29 C          65.0060   91.6000   14.0327 C.3     1  UNL1        0.1564
     30 N          66.3262   91.9055   14.6759 N.am    1  UNL1       -0.2727
     31 C          67.6763   91.7190   14.0495 C.3     1  UNL1        0.0943
     32 C          68.7126   92.1494   15.0448 C.3     1  UNL1        0.0311
     33 C          68.0030   92.6020   16.2864 C.3     1  UNL1        0.0870
     34 C          66.5281   92.4513   16.0585 C.2     1  UNL1        0.2260
     35 O          65.4452   92.7873   17.0405 O.2     1  UNL1       -0.2749
     36 C          63.8970   90.9997   14.8451 C.3     1  UNL1        0.0564
     37 C          63.9259   89.5404   15.1909 C.ar    1  UNL1       -0.0094
     38 C          64.7019   88.5823   14.3365 C.ar    1  UNL1       -0.0025
     39 C          64.7308   87.1230   14.6823 C.ar    1  UNL1        0.0111
     40 C          63.9836   86.6218   15.8826 C.ar    1  UNL1        0.0585
     41 CL         64.0124   85.1625   16.2284 Cl      1  UNL1       -0.0822
     42 C          63.2076   87.5798   16.7369 C.ar    1  UNL1        0.0225
     43 C          63.1787   89.0391   16.3911 C.ar    1  UNL1        0.0546
     44 CL         62.4027   89.9971   17.2454 Cl      1  UNL1       -0.0825
@<TRIPOS>UNITY_ATOM_ATTR
23 1
charge -1
@<TRIPOS>BOND
     1    26    27    1
     2    27    28    1
     3    27    25    1
     4    16    25    1
     5    16    17    1
     6    17    19    1
     7    19    20    1
     8    20    21    1
     9    21    22    1
    10    22    23   ar
    11    22    24   ar
    12    16     9    1
    13     9    10   ar
    14    10    11   ar
    15    11    12    1
    16    11    13   ar
    17    13    14   ar
    18    14    15   ar
    19    15     1    1
    20     1     2    1
    21     2     3    1
    22     3     4    1
    23     4     5   am
    24     5     6    2
    25     5    29    1
    26    29    36    1
    27    36    37    1
    28    37    38   ar
    29    38    39   ar
    30    39    40   ar
    31    40    41    1
    32    40    42   ar
    33    42    43   ar
    34    43    44    1
    35    29    30    1
    36    30    31    1
    37    31    32    1
    38    32    33    1
    39    33    34    1
    40    34    35    2
    41     4     7    1
    42     7     8    1
    43    15     9   ar
    44     8     1    1
    45    43    37   ar
    46    34    30   am
    47    17    18    1
@<TRIPOS>MOLECULE
*****
 44 47 0 0 0
SMALL
GASTEIGER

@<TRIPOS>ATOM
      1 N          63.3798   86.4303   14.8522 N.pl3   1  UNL1       -0.3043
      2 C          62.7770   87.2014   15.9889 C.3     1  UNL1        0.1123
      3 C          63.1124   88.6518   16.1725 C.3     1  UNL1        0.1149
      4 N          64.0506   89.3312   15.2194 N.am    1  UNL1       -0.2747
      5 C          64.3860   90.7816   15.4031 C.2     1  UNL1        0.2442
      6 O          63.7833   91.5527   16.5398 O.2     1  UNL1       -0.2731
      7 C          64.6534   88.5601   14.0827 C.3     1  UNL1        0.1149
      8 C          64.3179   87.1096   13.8991 C.3     1  UNL1        0.1123
      9 C          62.6927   84.4578   13.3070 C.ar    1  UNL1        0.0076
     10 C          62.3573   83.0074   13.1234 C.ar    1  UNL1        0.0279
     11 C          62.3735   82.0790   14.3014 C.ar    1  UNL1        0.1400
     12 F          62.0380   80.6285   14.1178 F       1  UNL1       -0.2042
     13 C          62.7250   82.6009   15.6630 C.ar    1  UNL1        0.0309
     14 C          63.0605   84.0513   15.8465 C.ar    1  UNL1        0.0165
     15 C          63.0443   84.9798   14.6685 C.ar    1  UNL1        0.0453
     16 C          62.6765   85.3863   12.1290 C.3     1  UNL1        0.0781
     17 N          61.5932   86.4157   12.0002 N.3     1  UNL1       -0.2951
     18 H          61.3522   86.7096   12.9467 H       1  UNL1        0.1235
     19 C          61.8366   87.6656   11.2074 C.3     1  UNL1        0.0692
     20 C          61.2258   87.8214    9.8463 C.3     1  UNL1        0.0230
     21 C          60.0865   86.9390    9.4301 C.3     1  UNL1        0.0431
     22 C          59.6672   86.8842    7.9910 C.2     1  UNL1        0.0504
     23 O          59.0926   88.1022    7.3302 O.co2   1  UNL1       -0.5492
     24 O          59.8224   85.6114    7.2125 O.co2   1  UNL1       -0.5492
     25 C          63.7437   85.2854   11.0798 C.3     1  UNL1        0.0203
     26 C          63.0189   84.8545    8.6223 C.3     1  UNL1        0.0001
     27 C          63.5708   84.3477    9.9218 C.3     1  UNL1        0.0017
     28 C          63.9497   82.9033   10.0633 C.3     1  UNL1        0.0001
     29 C          65.3242   91.4609   14.4500 C.3     1  UNL1        0.1564
     30 N          66.6144   92.0387   14.9515 N.am    1  UNL1       -0.2727
     31 C          66.8031   92.7928   16.2343 C.3     1  UNL1        0.0943
     32 C          68.2478   93.1840   16.3339 C.3     1  UNL1        0.0311
     33 C          68.9519   92.6717   15.1125 C.3     1  UNL1        0.0870
     34 C          67.9425   91.9638   14.2581 C.2     1  UNL1        0.2260
     35 O          68.2134   91.2980   12.9416 O.2     1  UNL1       -0.2749
     36 C          64.9721   91.5624   12.9954 C.3     1  UNL1        0.0564
     37 C          65.3316   92.7958   12.2211 C.ar    1  UNL1       -0.0094
     38 C          66.0800   93.9101   12.8906 C.ar    1  UNL1       -0.0025
     39 C          66.4395   95.1435   12.1163 C.ar    1  UNL1        0.0111
     40 C          66.0505   95.2625   10.6725 C.ar    1  UNL1        0.0585
     41 CL         66.4100   96.4959    9.8982 Cl      1  UNL1       -0.0822
     42 C          65.3022   94.1482   10.0030 C.ar    1  UNL1        0.0225
     43 C          64.9427   92.9149   10.7773 C.ar    1  UNL1        0.0546
     44 CL         64.1943   91.8006   10.1079 Cl      1  UNL1       -0.0825
@<TRIPOS>UNITY_ATOM_ATTR
23 1
charge -1
@<TRIPOS>BOND
     1    26    27    1
     2    27    28    1
     3    27    25    1
     4    16    25    1
     5    16    17    1
     6    17    19    1
     7    19    20    1
     8    20    21    1
     9    21    22    1
    10    22    23   ar
    11    22    24   ar
    12    16     9    1
    13     9    10   ar
    14    10    11   ar
    15    11    12    1
    16    11    13   ar
    17    13    14   ar
    18    14    15   ar
    19    15     1    1
    20     1     2    1
    21     2     3    1
    22     3     4    1
    23     4     5   am
    24     5     6    2
    25     5    29    1
    26    29    36    1
    27    36    37    1
    28    37    38   ar
    29    38    39   ar
    30    39    40   ar
    31    40    41    1
    32    40    42   ar
    33    42    43   ar
    34    43    44    1
    35    29    30    1
    36    30    31    1
    37    31    32    1
    38    32    33    1
    39    33    34    1
    40    34    35    2
    41     4     7    1
    42     7     8    1
    43    15     9   ar
    44     8     1    1
    45    43    37   ar
    46    34    30   am
    47    17    18    1
@<TRIPOS>MOLECULE
*****
 44 47 0 0 0
SMALL
GASTEIGER

@<TRIPOS>ATOM
      1 N          63.4647   91.1114   11.2075 N.pl3   1  UNL1       -0.3043
      2 C          61.9884   91.3161   11.3768 C.3     1  UNL1        0.1123
      3 C          61.0548   90.1448   11.2979 C.3     1  UNL1        0.1149
      4 N          61.5975   88.7686   11.0496 N.am    1  UNL1       -0.2747
      5 C          60.6639   87.5972   10.9706 C.2     1  UNL1        0.2442
      6 O          59.1876   87.8020   11.1400 O.2     1  UNL1       -0.2731
      7 C          63.0738   88.5638   10.8802 C.3     1  UNL1        0.1149
      8 C          64.0074   89.7353   10.9591 C.3     1  UNL1        0.1123
      9 C          65.1864   92.5307   12.5383 C.ar    1  UNL1        0.0076
     10 C          66.1200   93.7021   12.6172 C.ar    1  UNL1        0.0279
     11 C          66.2654   94.6256   11.4442 C.ar    1  UNL1        0.1400
     12 F          67.1990   95.7971   11.5232 F       1  UNL1       -0.2042
     13 C          65.4772   94.3778   10.1923 C.ar    1  UNL1        0.0309
     14 C          64.5437   93.2064   10.1134 C.ar    1  UNL1        0.0165
     15 C          64.3983   92.2828   11.2864 C.ar    1  UNL1        0.0453
     16 C          65.0410   91.6072   13.7113 C.3     1  UNL1        0.0781
     17 N          63.6760   91.2515   14.2212 N.3     1  UNL1       -0.2951
     18 H          63.2739   90.5944   13.5526 H       1  UNL1        0.1235
     19 C          63.5197   90.6363   15.5803 C.3     1  UNL1        0.0692
     20 C          63.4805   89.1441   15.7281 C.3     1  UNL1        0.0230
     21 C          63.0752   88.5303   17.0354 C.3     1  UNL1        0.0431
     22 C          62.6427   87.0950   17.0880 C.2     1  UNL1        0.0504
     23 O          63.6702   86.0025   17.1148 O.co2   1  UNL1       -0.5492
     24 O          61.1826   86.7522   17.1138 O.co2   1  UNL1       -0.5492
     25 C          66.2607   91.0394   14.3745 C.3     1  UNL1        0.0203
     26 C          68.5845   91.9909   15.0413 C.3     1  UNL1        0.0001
     27 C          67.1034   91.9058   15.2629 C.3     1  UNL1        0.0017
     28 C          66.4650   92.6870   16.3729 C.3     1  UNL1        0.0001
     29 C          61.2066   86.2211   10.7223 C.3     1  UNL1        0.1564
     30 N          61.6008   85.8094    9.3348 N.am    1  UNL1       -0.2727
     31 C          62.9238   85.2305    8.9293 C.3     1  UNL1        0.0943
     32 C          62.8819   84.9676    7.4531 C.3     1  UNL1        0.0311
     33 C          61.5329   85.3841    6.9462 C.3     1  UNL1        0.0870
     34 C          60.7411   85.9043    8.1092 C.2     1  UNL1        0.2260
     35 O          59.3364   86.4276    8.0560 O.2     1  UNL1       -0.2749
     36 C          61.3551   85.2565   11.8615 C.3     1  UNL1        0.0564
     37 C          62.6638   85.1479   12.5864 C.ar    1  UNL1       -0.0094
     38 C          63.2051   86.3278   13.3381 C.ar    1  UNL1       -0.0025
     39 C          64.5138   86.2191   14.0630 C.ar    1  UNL1        0.0111
     40 C          65.2813   84.9305   14.0362 C.ar    1  UNL1        0.0585
     41 CL         66.5900   84.8218   14.7611 Cl      1  UNL1       -0.0822
     42 C          64.7400   83.7507   13.2846 C.ar    1  UNL1        0.0225
     43 C          63.4313   83.8594   12.5597 C.ar    1  UNL1        0.0546
     44 CL         62.8900   82.6795   11.8080 Cl      1  UNL1       -0.0825
@<TRIPOS>UNITY_ATOM_ATTR
23 1
charge -1
@<TRIPOS>BOND
     1    26    27    1
     2    27    28    1
     3    27    25    1
     4    16    25    1
     5    16    17    1
     6    17    19    1
     7    19    20    1
     8    20    21    1
     9    21    22    1
    10    22    23   ar
    11    22    24   ar
    12    16     9    1
    13     9    10   ar
    14    10    11   ar
    15    11    12    1
    16    11    13   ar
    17    13    14   ar
    18    14    15   ar
    19    15     1    1
    20     1     2    1
    21     2     3    1
    22     3     4    1
    23     4     5   am
    24     5     6    2
    25     5    29    1
    26    29    36    1
    27    36    37    1
    28    37    38   ar
    29    38    39   ar
    30    39    40   ar
    31    40    41    1
    32    40    42   ar
    33    42    43   ar
    34    43    44    1
    35    29    30    1
    36    30    31    1
    37    31    32    1
    38    32    33    1
    39    33    34    1
    40    34    35    2
    41     4     7    1
    42     7     8    1
    43    15     9   ar
    44     8     1    1
    45    43    37   ar
    46    34    30   am
    47    17    18    1
@<TRIPOS>MOLECULE
*****
 44 47 0 0 0
SMALL
GASTEIGER

@<TRIPOS>ATOM
      1 N          63.8536   91.4565   11.3051 N.pl3   1  UNL1       -0.3043
      2 C          62.6917   91.2997   12.2407 C.3     1  UNL1        0.1123
      3 C          61.8586   90.0530   12.1997 C.3     1  UNL1        0.1149
      4 N          62.1874   88.9630   11.2229 N.am    1  UNL1       -0.2747
      5 C          61.3543   87.7164   11.1819 C.2     1  UNL1        0.2442
      6 O          60.1924   87.5596   12.1175 O.2     1  UNL1       -0.2731
      7 C          63.3493   89.1198   10.2873 C.3     1  UNL1        0.1149
      8 C          64.1824   90.3666   10.3284 C.3     1  UNL1        0.1123
      9 C          65.5129   93.0135   12.5591 C.ar    1  UNL1        0.0076
     10 C          66.3459   94.2602   12.6001 C.ar    1  UNL1        0.0279
     11 C          66.3527   95.1966   11.4284 C.ar    1  UNL1        0.1400
     12 F          67.1858   96.4434   11.4695 F       1  UNL1       -0.2042
     13 C          65.5265   94.8864   10.2155 C.ar    1  UNL1        0.0309
     14 C          64.6935   93.6397   10.1744 C.ar    1  UNL1        0.0165
     15 C          64.6867   92.7032   11.3462 C.ar    1  UNL1        0.0453
     16 C          65.5061   92.0771   13.7309 C.3     1  UNL1        0.0781
     17 N          64.2256   91.7984   14.4608 N.3     1  UNL1       -0.2951
     18 H          63.5800   91.3977   13.7803 H       1  UNL1        0.1235
     19 C          64.2239   90.8841   15.6499 C.3     1  UNL1        0.0692
     20 C          63.4704   89.5880   15.5983 C.3     1  UNL1        0.0230
     21 C          63.1195   88.8734   16.8696 C.3     1  UNL1        0.0431
     22 C          63.0089   87.3776   16.8832 C.2     1  UNL1        0.0504
     23 O          63.5702   86.5737   15.7479 O.co2   1  UNL1       -0.5492
     24 O          62.3369   86.6856   18.0320 O.co2   1  UNL1       -0.5492
     25 C          66.7797   91.4194   14.1727 C.3     1  UNL1        0.0203
     26 C          69.1785   92.3033   14.6358 C.3     1  UNL1        0.0001
     27 C          67.7433   92.1635   15.0490 C.3     1  UNL1        0.0017
     28 C          67.2717   92.7679   16.3383 C.3     1  UNL1        0.0001
     29 C          61.6831   86.6265   10.2052 C.3     1  UNL1        0.1564
     30 N          60.8148   86.4113    9.0012 N.am    1  UNL1       -0.2727
     31 C          59.4063   86.8984    8.8314 C.3     1  UNL1        0.0943
     32 C          58.9235   86.4594    7.4808 C.3     1  UNL1        0.0311
     33 C          60.0336   85.7008    6.8158 C.3     1  UNL1        0.0870
     34 C          61.2025   85.6710    7.7554 C.2     1  UNL1        0.2260
     35 O          62.5266   85.0162    7.4950 O.2     1  UNL1       -0.2749
     36 C          62.8803   85.7518   10.4325 C.3     1  UNL1        0.0564
     37 C          62.8105   84.6275   11.4231 C.ar    1  UNL1       -0.0094
     38 C          62.2609   84.8718   12.7973 C.ar    1  UNL1       -0.0025
     39 C          62.1911   83.7476   13.7879 C.ar    1  UNL1        0.0111
     40 C          62.6709   82.3791   13.4043 C.ar    1  UNL1        0.0585
     41 CL         62.6011   81.2549   14.3949 Cl      1  UNL1       -0.0822
     42 C          63.2206   82.1349   12.0302 C.ar    1  UNL1        0.0225
     43 C          63.2904   83.2591   11.0396 C.ar    1  UNL1        0.0546
     44 CL         63.8400   83.0149    9.6655 Cl      1  UNL1       -0.0825
@<TRIPOS>UNITY_ATOM_ATTR
23 1
charge -1
@<TRIPOS>BOND
     1    26    27    1
     2    27    28    1
     3    27    25    1
     4    16    25    1
     5    16    17    1
     6    17    19    1
     7    19    20    1
     8    20    21    1
     9    21    22    1
    10    22    23   ar
    11    22    24   ar
    12    16     9    1
    13     9    10   ar
    14    10    11   ar
    15    11    12    1
    16    11    13   ar
    17    13    14   ar
    18    14    15   ar
    19    15     1    1
    20     1     2    1
    21     2     3    1
    22     3     4    1
    23     4     5   am
    24     5     6    2
    25     5    29    1
    26    29    36    1
    27    36    37    1
    28    37    38   ar
    29    38    39   ar
    30    39    40   ar
    31    40    41    1
    32    40    42   ar
    33    42    43   ar
    34    43    44    1
    35    29    30    1
    36    30    31    1
    37    31    32    1
    38    32    33    1
    39    33    34    1
    40    34    35    2
    41     4     7    1
    42     7     8    1
    43    15     9   ar
    44     8     1    1
    45    43    37   ar
    46    34    30   am
    47    17    18    1
