@<TRIPOS>MOLECULE
*****
 30 33 0 0 0
SMALL
GASTEIGER

@<TRIPOS>ATOM
      1 O          62.8512   88.2222   11.9503 O.3     1  UNL1       -0.3822
      2 C          61.8463   88.3584   10.8450 C.3     1  UNL1        0.1164
      3 C          60.9995   88.0050    9.6584 C.3     1  UNL1        0.0487
      4 C          60.0466   89.0142    9.0897 C.3     1  UNL1        0.0714
      5 N          59.9405   90.3769    9.7076 N.3     1  UNL1       -0.2969
      6 C          60.7873   90.7304   10.8942 C.3     1  UNL1        0.0789
      7 C          61.7402   89.7212   11.4629 C.3     1  UNL1        0.1043
      8 H          63.2415   87.3345   11.9249 H       1  UNL1        0.2107
      9 H          58.9687   90.4957    9.9936 H       1  UNL1        0.1233
     10 C          62.3014   86.9484   10.6109 C.ar    1  UNL1        0.0046
     11 C          62.5371   86.0333   11.7758 C.ar    1  UNL1        0.0004
     12 C          62.9922   84.6233   11.5418 C.ar    1  UNL1        0.0317
     13 C          63.2116   84.1284   10.1428 C.ar    1  UNL1        0.1674
     14 F          63.6667   82.7184    9.9088 F       1  UNL1       -0.2018
     15 C          62.9759   85.0435    8.9780 C.ar    1  UNL1        0.1671
     16 F          63.1954   84.5487    7.5791 F       1  UNL1       -0.2018
     17 C          62.5208   86.4535    9.2120 C.ar    1  UNL1        0.0299
     18 C          62.5870   90.0745   12.6495 C.ar    1  UNL1        0.1579
     19 C          63.8993   90.8002   12.6115 C.ar    1  UNL1        0.0581
     20 C          64.3934   90.9384   14.0210 C.ar    1  UNL1        0.1231
     21 N          63.3866   90.2982   14.9301 N.ar    1  UNL1       -0.0773
     22 O          62.2702   89.7643   14.0825 O.2     1  UNL1       -0.3576
     23 C          65.6703   91.6005   14.4466 C.ar    1  UNL1        0.0273
     24 C          66.8502   91.6196   13.5205 C.ar    1  UNL1        0.0044
     25 C          68.1271   92.2818   13.9462 C.ar    1  UNL1        0.0297
     26 C          68.2240   92.9249   15.2979 C.ar    1  UNL1        0.1406
     27 F          69.5008   93.5870   15.7235 F       1  UNL1       -0.2042
     28 C          67.0442   92.9058   16.2239 C.ar    1  UNL1        0.0364
     29 C          65.7673   92.2436   15.7983 C.ar    1  UNL1        0.0383
     30 BR         64.5874   92.2245   16.7243 Br      1  UNL1       -0.0489
@<TRIPOS>BOND
     1     2     1    1
     2     2    10    1
     3    10    11   ar
     4    11    12   ar
     5    12    13   ar
     6    13    14    1
     7    13    15   ar
     8    15    16    1
     9    15    17   ar
    10     2     3    1
    11     3     4    1
    12     4     5    1
    13     5     6    1
    14     6     7    1
    15     7    18    1
    16    18    19   ar
    17    19    20   ar
    18    20    23    1
    19    23    24   ar
    20    24    25   ar
    21    25    26   ar
    22    26    27    1
    23    26    28   ar
    24    28    29   ar
    25    29    30    1
    26    20    21   ar
    27    21    22   ar
    28     7     2    1
    29    22    18   ar
    30    17    10   ar
    31    29    23   ar
    32     1     8    1
    33     5     9    1
@<TRIPOS>MOLECULE
*****
 30 33 0 0 0
SMALL
GASTEIGER

@<TRIPOS>ATOM
      1 O          62.6250   87.7349   11.5217 O.3     1  UNL1       -0.3822
      2 C          61.7637   87.6744   10.2951 C.3     1  UNL1        0.1164
      3 C          61.0930   87.1290    9.0693 C.3     1  UNL1        0.0487
      4 C          60.1726   88.0007    8.2673 C.3     1  UNL1        0.0714
      5 N          59.9229   89.4177    8.6913 N.3     1  UNL1       -0.2969
      6 C          60.5935   89.9630    9.9171 C.3     1  UNL1        0.0789
      7 C          61.5140   89.0914   10.7191 C.3     1  UNL1        0.1043
      8 H          63.0579   86.8772   11.6555 H       1  UNL1        0.2107
      9 H          58.9179   89.5075    8.8409 H       1  UNL1        0.1233
     10 C          62.3126   86.2784   10.2971 C.ar    1  UNL1        0.0046
     11 C          62.8635   85.6873    9.0334 C.ar    1  UNL1        0.0004
     12 C          63.4124   84.2913    9.0355 C.ar    1  UNL1        0.0317
     13 C          63.4103   83.4865   10.3013 C.ar    1  UNL1        0.1674
     14 F          63.9592   82.0905   10.3034 F       1  UNL1       -0.2018
     15 C          62.8593   84.0776   11.5650 C.ar    1  UNL1        0.1671
     16 F          62.8572   83.2727   12.8308 F       1  UNL1       -0.2018
     17 C          62.3105   85.4735   11.5629 C.ar    1  UNL1        0.0299
     18 C          62.1847   89.6367   11.9449 C.ar    1  UNL1        0.1579
     19 C          63.4302   90.4723   11.9708 C.ar    1  UNL1        0.0581
     20 C          63.7428   90.7941   13.4020 C.ar    1  UNL1        0.1231
     21 N          62.6907   90.1575   14.2609 N.ar    1  UNL1       -0.0773
     22 O          61.7276   89.4422   13.3603 O.2     1  UNL1       -0.3576
     23 C          64.9039   91.6094   13.8890 C.ar    1  UNL1        0.0273
     24 C          65.2897   91.5742   15.3382 C.ar    1  UNL1        0.0044
     25 C          66.4508   92.3895   15.8252 C.ar    1  UNL1        0.0297
     26 C          67.2261   93.2400   14.8630 C.ar    1  UNL1        0.1406
     27 F          68.3871   94.0553   15.3500 F       1  UNL1       -0.2042
     28 C          66.8402   93.2752   13.4140 C.ar    1  UNL1        0.0364
     29 C          65.6792   92.4599   12.9269 C.ar    1  UNL1        0.0383
     30 BR         65.2933   92.4951   11.4778 Br      1  UNL1       -0.0489
@<TRIPOS>BOND
     1     2     1    1
     2     2    10    1
     3    10    11   ar
     4    11    12   ar
     5    12    13   ar
     6    13    14    1
     7    13    15   ar
     8    15    16    1
     9    15    17   ar
    10     2     3    1
    11     3     4    1
    12     4     5    1
    13     5     6    1
    14     6     7    1
    15     7    18    1
    16    18    19   ar
    17    19    20   ar
    18    20    23    1
    19    23    24   ar
    20    24    25   ar
    21    25    26   ar
    22    26    27    1
    23    26    28   ar
    24    28    29   ar
    25    29    30    1
    26    20    21   ar
    27    21    22   ar
    28     7     2    1
    29    22    18   ar
    30    17    10   ar
    31    29    23   ar
    32     1     8    1
    33     5     9    1
@<TRIPOS>MOLECULE
*****
 30 33 0 0 0
SMALL
GASTEIGER

@<TRIPOS>ATOM
      1 O          63.8759   88.7504   12.9642 O.3     1  UNL1       -0.3822
      2 C          63.2912   89.6653   11.9292 C.3     1  UNL1        0.1164
      3 C          63.0046   90.9180   11.1556 C.3     1  UNL1        0.0487
      4 C          62.0626   90.8801    9.9889 C.3     1  UNL1        0.0714
      5 N          61.4071   89.5894    9.5959 N.3     1  UNL1       -0.2969
      6 C          61.6937   88.3367   10.3694 C.3     1  UNL1        0.0789
      7 C          62.6357   88.3746   11.5361 C.3     1  UNL1        0.1043
      8 H          64.4706   89.2539   13.5419 H       1  UNL1        0.2107
      9 H          61.6745   89.4059    8.6288 H       1  UNL1        0.1233
     10 C          64.1498   90.6383   12.6817 C.ar    1  UNL1        0.0046
     11 C          64.4196   90.4270   14.1420 C.ar    1  UNL1        0.0004
     12 C          65.2781   91.3999   14.8945 C.ar    1  UNL1        0.0317
     13 C          65.8668   92.5842   14.1866 C.ar    1  UNL1        0.1674
     14 F          66.7254   93.5571   14.9392 F       1  UNL1       -0.2018
     15 C          65.5970   92.7954   12.7264 C.ar    1  UNL1        0.1671
     16 F          66.1857   93.9797   12.0185 F       1  UNL1       -0.2018
     17 C          64.7384   91.8225   11.9739 C.ar    1  UNL1        0.0299
     18 C          62.9223   87.1219   12.3098 C.ar    1  UNL1        0.1579
     19 C          62.4634   85.7395   11.9512 C.ar    1  UNL1        0.0581
     20 C          62.9756   84.7950   12.9977 C.ar    1  UNL1        0.1231
     21 N          63.7512   85.5934   14.0032 N.ar    1  UNL1       -0.0773
     22 O          63.7183   87.0315   13.5780 O.2     1  UNL1       -0.3576
     23 C          62.7517   83.3122   13.0327 C.ar    1  UNL1        0.0273
     24 C          61.9564   82.6999   14.1475 C.ar    1  UNL1        0.0044
     25 C          61.7324   81.2171   14.1825 C.ar    1  UNL1        0.0297
     26 C          62.3037   80.3467   13.1026 C.ar    1  UNL1        0.1406
     27 F          62.0797   78.8639   13.1377 F       1  UNL1       -0.2042
     28 C          63.0989   80.9590   11.9879 C.ar    1  UNL1        0.0364
     29 C          63.3229   82.4417   11.9529 C.ar    1  UNL1        0.0383
     30 BR         64.1181   83.0540   10.8381 Br      1  UNL1       -0.0489
@<TRIPOS>BOND
     1     2     1    1
     2     2    10    1
     3    10    11   ar
     4    11    12   ar
     5    12    13   ar
     6    13    14    1
     7    13    15   ar
     8    15    16    1
     9    15    17   ar
    10     2     3    1
    11     3     4    1
    12     4     5    1
    13     5     6    1
    14     6     7    1
    15     7    18    1
    16    18    19   ar
    17    19    20   ar
    18    20    23    1
    19    23    24   ar
    20    24    25   ar
    21    25    26   ar
    22    26    27    1
    23    26    28   ar
    24    28    29   ar
    25    29    30    1
    26    20    21   ar
    27    21    22   ar
    28     7     2    1
    29    22    18   ar
    30    17    10   ar
    31    29    23   ar
    32     1     8    1
    33     5     9    1
@<TRIPOS>MOLECULE
*****
 30 33 0 0 0
SMALL
GASTEIGER

@<TRIPOS>ATOM
      1 O          62.5053   87.0252   11.6794 O.3     1  UNL1       -0.3822
      2 C          61.9090   86.5230   10.3979 C.3     1  UNL1        0.1164
      3 C          61.5206   85.5792    9.2986 C.3     1  UNL1        0.0487
      4 C          60.7407   86.0812    8.1198 C.3     1  UNL1        0.0714
      5 N          60.3491   87.5270    8.0402 N.3     1  UNL1       -0.2969
      6 C          60.7375   88.4708    9.1394 C.3     1  UNL1        0.0789
      7 C          61.5174   87.9688   10.3183 C.3     1  UNL1        0.1043
      8 H          62.9403   86.2924   12.1426 H       1  UNL1        0.2107
      9 H          59.3316   87.5534    7.9753 H       1  UNL1        0.1233
     10 C          62.5076   85.2516   10.9226 C.ar    1  UNL1        0.0046
     11 C          62.3125   84.8678   12.3594 C.ar    1  UNL1        0.0004
     12 C          62.9112   83.5965   12.8840 C.ar    1  UNL1        0.0317
     13 C          63.7048   82.7089   11.9718 C.ar    1  UNL1        0.1674
     14 F          64.3035   81.4374   12.4965 F       1  UNL1       -0.2018
     15 C          63.8999   83.0926   10.5349 C.ar    1  UNL1        0.1671
     16 F          64.6935   82.2050    9.6227 F       1  UNL1       -0.2018
     17 C          63.3013   84.3639   10.0103 C.ar    1  UNL1        0.0299
     18 C          61.9059   88.9126   11.4176 C.ar    1  UNL1        0.1579
     19 C          63.2376   89.5853   11.5727 C.ar    1  UNL1        0.0581
     20 C          63.1854   90.4377   12.8057 C.ar    1  UNL1        0.1231
     21 N          61.8215   90.2919   13.4128 N.ar    1  UNL1       -0.0773
     22 O          61.0307   89.3493   12.5549 O.2     1  UNL1       -0.3576
     23 C          64.3013   91.2870   13.3383 C.ar    1  UNL1        0.0273
     24 C          65.0552   92.1991   12.4165 C.ar    1  UNL1        0.0044
     25 C          66.1711   93.0484   12.9490 C.ar    1  UNL1        0.0297
     26 C          66.5331   92.9855   14.4034 C.ar    1  UNL1        0.1406
     27 F          67.6489   93.8347   14.9359 F       1  UNL1       -0.2042
     28 C          65.7792   92.0733   15.3251 C.ar    1  UNL1        0.0364
     29 C          64.6633   91.2241   14.7926 C.ar    1  UNL1        0.0383
     30 BR         63.9094   90.3119   15.7144 Br      1  UNL1       -0.0489
@<TRIPOS>BOND
     1     2     1    1
     2     2    10    1
     3    10    11   ar
     4    11    12   ar
     5    12    13   ar
     6    13    14    1
     7    13    15   ar
     8    15    16    1
     9    15    17   ar
    10     2     3    1
    11     3     4    1
    12     4     5    1
    13     5     6    1
    14     6     7    1
    15     7    18    1
    16    18    19   ar
    17    19    20   ar
    18    20    23    1
    19    23    24   ar
    20    24    25   ar
    21    25    26   ar
    22    26    27    1
    23    26    28   ar
    24    28    29   ar
    25    29    30    1
    26    20    21   ar
    27    21    22   ar
    28     7     2    1
    29    22    18   ar
    30    17    10   ar
    31    29    23   ar
    32     1     8    1
    33     5     9    1
@<TRIPOS>MOLECULE
*****
 30 33 0 0 0
SMALL
GASTEIGER

@<TRIPOS>ATOM
      1 O          64.4337   87.9559   13.6976 O.3     1  UNL1       -0.3822
      2 C          63.9005   88.8573   14.7715 C.3     1  UNL1        0.1164
      3 C          63.4392   90.1056   15.4634 C.3     1  UNL1        0.0487
      4 C          62.9561   90.0419   16.8820 C.3     1  UNL1        0.0714
      5 N          62.9342   88.7298   17.6087 N.3     1  UNL1       -0.2969
      6 C          63.3955   87.4815   16.9167 C.3     1  UNL1        0.0789
      7 C          63.8786   87.5452   15.4981 C.3     1  UNL1        0.1043
      8 H          64.6195   88.4769   12.9008 H       1  UNL1        0.2107
      9 H          61.9687   88.5680   17.8953 H       1  UNL1        0.1233
     10 C          64.1076   89.8563   13.6718 C.ar    1  UNL1        0.0046
     11 C          63.3055   89.7578   12.4082 C.ar    1  UNL1        0.0004
     12 C          63.5126   90.7568   11.3086 C.ar    1  UNL1        0.0317
     13 C          64.5218   91.8543   11.4727 C.ar    1  UNL1        0.1674
     14 F          64.7289   92.8533   10.3731 F       1  UNL1       -0.2018
     15 C          65.3239   91.9528   12.7364 C.ar    1  UNL1        0.1671
     16 F          66.3331   93.0504   12.9005 F       1  UNL1       -0.2018
     17 C          65.1168   90.9538   13.8359 C.ar    1  UNL1        0.0299
     18 C          64.3399   86.2969   14.8061 C.ar    1  UNL1        0.1579
     19 C          63.5254   85.4563   13.8680 C.ar    1  UNL1        0.0581
     20 C          64.3789   84.3100   13.4129 C.ar    1  UNL1        0.1231
     21 N          65.7210   84.4419   14.0695 N.ar    1  UNL1       -0.0773
     22 O          65.6970   85.6699   14.9306 O.2     1  UNL1       -0.3576
     23 C          63.9633   83.2225   12.4670 C.ar    1  UNL1        0.0273
     24 C          64.4772   83.2174   11.0577 C.ar    1  UNL1        0.0044
     25 C          64.0615   82.1299   10.1118 C.ar    1  UNL1        0.0297
     26 C          63.1320   81.0476   10.5752 C.ar    1  UNL1        0.1406
     27 F          62.7164   79.9602    9.6293 F       1  UNL1       -0.2042
     28 C          62.6182   81.0528   11.9844 C.ar    1  UNL1        0.0364
     29 C          63.0338   82.1402   12.9302 C.ar    1  UNL1        0.0383
     30 BR         62.5199   82.1454   14.3395 Br      1  UNL1       -0.0489
@<TRIPOS>BOND
     1     2     1    1
     2     2    10    1
     3    10    11   ar
     4    11    12   ar
     5    12    13   ar
     6    13    14    1
     7    13    15   ar
     8    15    16    1
     9    15    17   ar
    10     2     3    1
    11     3     4    1
    12     4     5    1
    13     5     6    1
    14     6     7    1
    15     7    18    1
    16    18    19   ar
    17    19    20   ar
    18    20    23    1
    19    23    24   ar
    20    24    25   ar
    21    25    26   ar
    22    26    27    1
    23    26    28   ar
    24    28    29   ar
    25    29    30    1
    26    20    21   ar
    27    21    22   ar
    28     7     2    1
    29    22    18   ar
    30    17    10   ar
    31    29    23   ar
    32     1     8    1
    33     5     9    1
@<TRIPOS>MOLECULE
*****
 30 33 0 0 0
SMALL
GASTEIGER

@<TRIPOS>ATOM
      1 O          63.3954   86.2046   13.0185 O.3     1  UNL1       -0.3822
      2 C          63.2508   84.7315   13.2622 C.3     1  UNL1        0.1164
      3 C          63.0703   83.2683   12.9862 C.3     1  UNL1        0.0487
      4 C          63.0437   82.2886   14.1218 C.3     1  UNL1        0.0714
      5 N          63.1977   82.7723   15.5334 N.3     1  UNL1       -0.2969
      6 C          63.3783   84.2355   15.8093 C.3     1  UNL1        0.0789
      7 C          63.4049   85.2152   14.6737 C.3     1  UNL1        0.1043
      8 H          63.3467   86.3810   12.0659 H       1  UNL1        0.2107
      9 H          64.0130   82.2969   15.9202 H       1  UNL1        0.1233
     10 C          63.1470   84.7595   11.7660 C.ar    1  UNL1        0.0046
     11 C          63.8452   83.7153   10.9461 C.ar    1  UNL1        0.0004
     12 C          63.7413   83.7433    9.4500 C.ar    1  UNL1        0.0317
     13 C          62.9393   84.8155    8.7738 C.ar    1  UNL1        0.1674
     14 F          62.8355   84.8434    7.2776 F       1  UNL1       -0.2018
     15 C          62.2411   85.8596    9.5936 C.ar    1  UNL1        0.1671
     16 F          61.4391   86.9317    8.9174 F       1  UNL1       -0.2018
     17 C          62.3450   85.8316   11.0897 C.ar    1  UNL1        0.0299
     18 C          63.5854   86.6785   14.9495 C.ar    1  UNL1        0.1579
     19 C          64.2885   87.6628   14.0625 C.ar    1  UNL1        0.0581
     20 C          64.2322   89.0070   14.7257 C.ar    1  UNL1        0.1231
     21 N          63.4944   88.8536   16.0226 N.ar    1  UNL1       -0.0773
     22 O          63.0947   87.4145   16.1610 O.2     1  UNL1       -0.3576
     23 C          64.8119   90.2811   14.1865 C.ar    1  UNL1        0.0273
     24 C          65.9583   90.9416   14.8935 C.ar    1  UNL1        0.0044
     25 C          66.5380   92.2157   14.3544 C.ar    1  UNL1        0.0297
     26 C          65.9715   92.8292   13.1083 C.ar    1  UNL1        0.1406
     27 F          66.5512   94.1033   12.5693 F       1  UNL1       -0.2042
     28 C          64.8252   92.1687   12.4014 C.ar    1  UNL1        0.0364
     29 C          64.2454   90.8947   12.9405 C.ar    1  UNL1        0.0383
     30 BR         63.0991   90.2341   12.2336 Br      1  UNL1       -0.0489
@<TRIPOS>BOND
     1     2     1    1
     2     2    10    1
     3    10    11   ar
     4    11    12   ar
     5    12    13   ar
     6    13    14    1
     7    13    15   ar
     8    15    16    1
     9    15    17   ar
    10     2     3    1
    11     3     4    1
    12     4     5    1
    13     5     6    1
    14     6     7    1
    15     7    18    1
    16    18    19   ar
    17    19    20   ar
    18    20    23    1
    19    23    24   ar
    20    24    25   ar
    21    25    26   ar
    22    26    27    1
    23    26    28   ar
    24    28    29   ar
    25    29    30    1
    26    20    21   ar
    27    21    22   ar
    28     7     2    1
    29    22    18   ar
    30    17    10   ar
    31    29    23   ar
    32     1     8    1
    33     5     9    1
@<TRIPOS>MOLECULE
*****
 30 33 0 0 0
SMALL
GASTEIGER

@<TRIPOS>ATOM
      1 O          62.8614   88.9476   13.1536 O.3     1  UNL1       -0.3822
      2 C          63.8433   89.9033   13.7640 C.3     1  UNL1        0.1164
      3 C          64.7684   90.5234   14.7688 C.3     1  UNL1        0.0487
      4 C          65.5160   91.7778   14.4260 C.3     1  UNL1        0.0714
      5 N          65.3384   92.4122   13.0783 N.3     1  UNL1       -0.2969
      6 C          64.4133   91.7921   12.0736 C.3     1  UNL1        0.0789
      7 C          63.6657   90.5377   12.4164 C.3     1  UNL1        0.1043
      8 H          62.6541   88.2462   13.7907 H       1  UNL1        0.2107
      9 H          66.2615   92.4481   12.6458 H       1  UNL1        0.1233
     10 C          63.6798   88.9370   14.8997 C.ar    1  UNL1        0.0046
     11 C          63.0964   89.4011   16.2012 C.ar    1  UNL1        0.0004
     12 C          62.9330   88.4348   17.3368 C.ar    1  UNL1        0.0317
     13 C          63.3530   87.0044   17.1708 C.ar    1  UNL1        0.1674
     14 F          63.1895   86.0381   18.3064 F       1  UNL1       -0.2018
     15 C          63.9364   86.5403   15.8692 C.ar    1  UNL1        0.1671
     16 F          64.3565   85.1099   15.7032 F       1  UNL1       -0.2018
     17 C          64.0999   87.5066   14.7337 C.ar    1  UNL1        0.0299
     18 C          62.7406   89.9175   11.4116 C.ar    1  UNL1        0.1579
     19 C          62.9745   88.6335   10.6723 C.ar    1  UNL1        0.0581
     20 C          61.7975   88.3951    9.7736 C.ar    1  UNL1        0.1231
     21 N          60.8360   89.5316    9.9575 N.ar    1  UNL1       -0.0773
     22 O          61.4189   90.4726   10.9698 O.2     1  UNL1       -0.3576
     23 C          61.6141   87.2253    8.8527 C.ar    1  UNL1        0.0273
     24 C          62.7266   86.2365    8.6655 C.ar    1  UNL1        0.0044
     25 C          62.5432   85.0668    7.7446 C.ar    1  UNL1        0.0297
     26 C          61.2474   84.8859    7.0108 C.ar    1  UNL1        0.1406
     27 F          61.0641   83.7161    6.0899 F       1  UNL1       -0.2042
     28 C          60.1352   85.8746    7.1980 C.ar    1  UNL1        0.0364
     29 C          60.3185   87.0443    8.1189 C.ar    1  UNL1        0.0383
     30 BR         59.2061   88.0332    8.3061 Br      1  UNL1       -0.0489
@<TRIPOS>BOND
     1     2     1    1
     2     2    10    1
     3    10    11   ar
     4    11    12   ar
     5    12    13   ar
     6    13    14    1
     7    13    15   ar
     8    15    16    1
     9    15    17   ar
    10     2     3    1
    11     3     4    1
    12     4     5    1
    13     5     6    1
    14     6     7    1
    15     7    18    1
    16    18    19   ar
    17    19    20   ar
    18    20    23    1
    19    23    24   ar
    20    24    25   ar
    21    25    26   ar
    22    26    27    1
    23    26    28   ar
    24    28    29   ar
    25    29    30    1
    26    20    21   ar
    27    21    22   ar
    28     7     2    1
    29    22    18   ar
    30    17    10   ar
    31    29    23   ar
    32     1     8    1
    33     5     9    1
@<TRIPOS>MOLECULE
*****
 30 33 0 0 0
SMALL
GASTEIGER

@<TRIPOS>ATOM
      1 O          62.4288   88.1454   11.6341 O.3     1  UNL1       -0.3822
      2 C          62.5044   86.6575   11.8085 C.3     1  UNL1        0.1164
      3 C          62.2913   85.1954   11.5500 C.3     1  UNL1        0.0487
      4 C          62.8829   84.1757   12.4775 C.3     1  UNL1        0.0714
      5 N          63.6877   84.6182   13.6635 N.3     1  UNL1       -0.2969
      6 C          63.9008   86.0803   13.9220 C.3     1  UNL1        0.0789
      7 C          63.3091   87.0999   12.9946 C.3     1  UNL1        0.1043
      8 H          61.9062   88.3522   10.8435 H       1  UNL1        0.2107
      9 H          64.6123   84.1988   13.5650 H       1  UNL1        0.1233
     10 C          61.6733   86.7318   10.5619 C.ar    1  UNL1        0.0046
     11 C          60.4564   87.6078   10.5229 C.ar    1  UNL1        0.0004
     12 C          59.6255   87.6821    9.2764 C.ar    1  UNL1        0.0317
     13 C          60.0114   86.8803    8.0688 C.ar    1  UNL1        0.1674
     14 F          59.1804   86.9547    6.8222 F       1  UNL1       -0.2018
     15 C          61.2284   86.0043    8.1078 C.ar    1  UNL1        0.1671
     16 F          61.6143   85.2025    6.9003 F       1  UNL1       -0.2018
     17 C          62.0593   85.9300    9.3544 C.ar    1  UNL1        0.0299
     18 C          63.5222   88.5620   13.2530 C.ar    1  UNL1        0.1579
     19 C          64.7732   89.1889   13.7935 C.ar    1  UNL1        0.0581
     20 C          64.5457   90.6682   13.8908 C.ar    1  UNL1        0.1231
     21 N          63.1541   90.9559   13.4105 N.ar    1  UNL1       -0.0773
     22 O          62.5215   89.6542   13.0163 O.2     1  UNL1       -0.3576
     23 C          65.5360   91.6821   14.3822 C.ar    1  UNL1        0.0273
     24 C          65.9299   91.7055   15.8294 C.ar    1  UNL1        0.0044
     25 C          66.9202   92.7193   16.3208 C.ar    1  UNL1        0.0297
     26 C          67.5165   93.7098   15.3650 C.ar    1  UNL1        0.1406
     27 F          68.5068   94.7236   15.8565 F       1  UNL1       -0.2042
     28 C          67.1226   93.6863   13.9179 C.ar    1  UNL1        0.0364
     29 C          66.1323   92.6725   13.4265 C.ar    1  UNL1        0.0383
     30 BR         65.7384   92.6491   11.9793 Br      1  UNL1       -0.0489
@<TRIPOS>BOND
     1     2     1    1
     2     2    10    1
     3    10    11   ar
     4    11    12   ar
     5    12    13   ar
     6    13    14    1
     7    13    15   ar
     8    15    16    1
     9    15    17   ar
    10     2     3    1
    11     3     4    1
    12     4     5    1
    13     5     6    1
    14     6     7    1
    15     7    18    1
    16    18    19   ar
    17    19    20   ar
    18    20    23    1
    19    23    24   ar
    20    24    25   ar
    21    25    26   ar
    22    26    27    1
    23    26    28   ar
    24    28    29   ar
    25    29    30    1
    26    20    21   ar
    27    21    22   ar
    28     7     2    1
    29    22    18   ar
    30    17    10   ar
    31    29    23   ar
    32     1     8    1
    33     5     9    1
@<TRIPOS>MOLECULE
*****
 30 33 0 0 0
SMALL
GASTEIGER

@<TRIPOS>ATOM
      1 O          63.4294   87.3877   12.9727 O.3     1  UNL1       -0.3822
      2 C          63.4951   85.9663   13.4475 C.3     1  UNL1        0.1164
      3 C          63.4368   84.4677   13.4223 C.3     1  UNL1        0.0487
      4 C          63.7129   83.6852   14.6720 C.3     1  UNL1        0.0714
      5 N          64.0474   84.4015   15.9468 N.3     1  UNL1       -0.2969
      6 C          64.1057   85.9001   15.9720 C.3     1  UNL1        0.0789
      7 C          63.8296   86.6825   14.7224 C.3     1  UNL1        0.1043
      8 H          63.2011   87.4034   12.0301 H       1  UNL1        0.2107
      9 H          64.9646   84.0662   16.2411 H       1  UNL1        0.1233
     10 C          63.1379   85.7437   12.0078 C.ar    1  UNL1        0.0046
     11 C          63.5206   84.4617   11.3296 C.ar    1  UNL1        0.0004
     12 C          63.1634   84.2392    9.8899 C.ar    1  UNL1        0.0317
     13 C          62.4233   85.2987    9.1284 C.ar    1  UNL1        0.1674
     14 F          62.0661   85.0761    7.6886 F       1  UNL1       -0.2018
     15 C          62.0406   86.5806    9.8065 C.ar    1  UNL1        0.1671
     16 F          61.3006   87.6401    9.0450 F       1  UNL1       -0.2018
     17 C          62.3978   86.8032   11.2462 C.ar    1  UNL1        0.0299
     18 C          63.8878   88.1812   14.7475 C.ar    1  UNL1        0.1579
     19 C          64.6827   89.0485   13.8168 C.ar    1  UNL1        0.0581
     20 C          64.4475   90.4789   14.2019 C.ar    1  UNL1        0.1231
     21 N          63.5074   90.4959   15.3706 N.ar    1  UNL1       -0.0773
     22 O          63.1615   89.0758   15.7078 O.2     1  UNL1       -0.3576
     23 C          65.0472   91.6814   13.5353 C.ar    1  UNL1        0.0273
     24 C          64.7707   91.9514   12.0859 C.ar    1  UNL1        0.0044
     25 C          65.3704   93.1539   11.4193 C.ar    1  UNL1        0.0297
     26 C          66.2467   94.0864   12.2021 C.ar    1  UNL1        0.1406
     27 F          66.8464   95.2889   11.5355 F       1  UNL1       -0.2042
     28 C          66.5232   93.8164   13.6514 C.ar    1  UNL1        0.0364
     29 C          65.9235   92.6139   14.3180 C.ar    1  UNL1        0.0383
     30 BR         66.2000   92.3438   15.7674 Br      1  UNL1       -0.0489
@<TRIPOS>BOND
     1     2     1    1
     2     2    10    1
     3    10    11   ar
     4    11    12   ar
     5    12    13   ar
     6    13    14    1
     7    13    15   ar
     8    15    16    1
     9    15    17   ar
    10     2     3    1
    11     3     4    1
    12     4     5    1
    13     5     6    1
    14     6     7    1
    15     7    18    1
    16    18    19   ar
    17    19    20   ar
    18    20    23    1
    19    23    24   ar
    20    24    25   ar
    21    25    26   ar
    22    26    27    1
    23    26    28   ar
    24    28    29   ar
    25    29    30    1
    26    20    21   ar
    27    21    22   ar
    28     7     2    1
    29    22    18   ar
    30    17    10   ar
    31    29    23   ar
    32     1     8    1
    33     5     9    1
