@<TRIPOS>MOLECULE
*****
 42 46 0 0 0
SMALL
GASTEIGER

@<TRIPOS>ATOM
      1 C          62.4640   85.9075   11.5624 C.ar    1  UNL1        0.0383
      2 C          63.1742   86.6480   12.6566 C.ar    1  UNL1        0.0433
      3 N          62.9760   88.1169   12.4265 N.ar    1  UNL1       -0.3260
      4 C          62.1434   88.2843   11.1901 C.ar    1  UNL1        0.0606
      5 C          61.6325   89.5037   10.4816 C.ar    1  UNL1        0.0203
      6 C          60.8051   89.3575    9.2390 C.ar    1  UNL1        0.0384
      7 C          60.4887   87.9920    8.7049 C.ar    1  UNL1        0.1392
      8 C          60.9995   86.7727    9.4135 C.ar    1  UNL1        0.0389
      9 C          61.8269   86.9188   10.6560 C.ar    1  UNL1        0.0256
     10 S          62.4017   84.4174   11.4026 S.3     1  UNL1       -0.1142
     11 C          63.4741   84.3724    9.5729 C.3     1  UNL1        0.0112
     12 C          63.5958   83.6674   10.8912 C.3     1  UNL1        0.0434
     13 C          63.7175   82.9622   12.2096 C.3     1  UNL1        0.0112
     14 C          64.7899   82.9173   10.3799 C.3     1  UNL1        0.0112
     15 C          63.9468   86.0284   13.7831 C.3     1  UNL1        0.0495
     16 C          63.4707   86.1886   15.1965 C.3     1  UNL1        0.0376
     17 C          62.6250   84.9583   15.0511 C.3     1  UNL1        0.0059
     18 C          64.3163   87.4188   15.3419 C.3     1  UNL1        0.0059
     19 C          62.9945   86.3487   16.6099 C.2     1  UNL1        0.0500
     20 O          62.3551   85.1933   17.3214 O.co2   1  UNL1       -0.5492
     21 O          63.1577   87.6643   17.3118 O.co2   1  UNL1       -0.5492
     22 C          63.5157   89.2242   13.2825 C.3     1  UNL1        0.1324
     23 C          64.1674   90.4155   12.6450 C.ar    1  UNL1        0.0004
     24 C          65.2411   91.1644   13.3773 C.ar    1  UNL1       -0.0023
     25 C          65.8928   92.3556   12.7399 C.ar    1  UNL1        0.0028
     26 C          65.4706   92.7979   11.3701 C.ar    1  UNL1        0.0358
     27 C          64.3968   92.0490   10.6379 C.ar    1  UNL1        0.0028
     28 C          63.7452   90.8578   11.2753 C.ar    1  UNL1       -0.0023
     29 C          66.1222   93.9891   10.7327 C.ar    1  UNL1        0.1623
     30 N          65.9510   95.3510   11.3377 N.ar    1  UNL1       -0.2250
     31 C          66.6025   96.5423   10.7003 C.ar    1  UNL1        0.1022
     32 C          67.4253   96.3717    9.4578 C.ar    1  UNL1        0.0414
     33 C          67.5965   95.0099    8.8527 C.ar    1  UNL1        0.1022
     34 N          66.9450   93.8186    9.4901 N.ar    1  UNL1       -0.2250
     35 O          59.6613   87.8459    7.4623 O.3     1  UNL1       -0.4690
     36 C          58.5732   88.8347    7.1651 C.3     1  UNL1        0.2508
     37 C          58.8147   89.9433    6.1838 C.ar    1  UNL1        0.1026
     38 C          60.2072   90.2337    5.7081 C.ar    1  UNL1        0.0185
     39 C          60.4486   91.3423    4.7269 C.ar    1  UNL1        0.0029
     40 C          59.2975   92.1603    4.2214 C.ar    1  UNL1        0.0207
     41 C          57.9049   91.8699    4.6971 C.ar    1  UNL1        0.0986
     42 N          57.6635   90.7614    5.6783 N.ar    1  UNL1       -0.2445
@<TRIPOS>UNITY_ATOM_ATTR
20 1
charge -1
@<TRIPOS>BOND
     1    11    12    1
     2    12    13    1
     3    12    14    1
     4    12    10    1
     5    10     1    1
     6     1     2   ar
     7     2    15    1
     8    15    16    1
     9    16    17    1
    10    16    18    1
    11    16    19    1
    12    19    20   ar
    13    19    21   ar
    14     2     3   ar
    15     3    22    1
    16    22    23    1
    17    23    24   ar
    18    24    25   ar
    19    25    26   ar
    20    26    29    1
    21    29    30   ar
    22    30    31   ar
    23    31    32   ar
    24    32    33   ar
    25    33    34   ar
    26    26    27   ar
    27    27    28   ar
    28     3     4   ar
    29     4     5   ar
    30     5     6   ar
    31     6     7   ar
    32     7    35    1
    33    35    36    1
    34    36    37    1
    35    37    38   ar
    36    38    39   ar
    37    39    40   ar
    38    40    41   ar
    39    41    42   ar
    40     7     8   ar
    41     8     9   ar
    42     9     1   ar
    43    28    23   ar
    44     9     4   ar
    45    34    29   ar
    46    42    37   ar
@<TRIPOS>MOLECULE
*****
 42 46 0 0 0
SMALL
GASTEIGER

@<TRIPOS>ATOM
      1 C          62.3870   86.9482   11.7470 C.ar    1  UNL1        0.0383
      2 C          62.5710   88.4059   12.0492 C.ar    1  UNL1        0.0433
      3 N          63.4861   88.5221   13.2321 N.ar    1  UNL1       -0.3260
      4 C          63.8676   87.1362   13.6609 C.ar    1  UNL1        0.0606
      5 C          64.7458   86.6344   14.7686 C.ar    1  UNL1        0.0203
      6 C          64.9446   85.1598   14.9584 C.ar    1  UNL1        0.0384
      7 C          64.2653   84.1871   14.0406 C.ar    1  UNL1        0.1392
      8 C          63.3872   84.6890   12.9329 C.ar    1  UNL1        0.0389
      9 C          63.1883   86.1635   12.7431 C.ar    1  UNL1        0.0256
     10 S          61.5488   86.3757   10.6427 S.3     1  UNL1       -0.1142
     11 C          61.4774   87.0822    8.6437 C.3     1  UNL1        0.0112
     12 C          62.1895   85.9666    9.3497 C.3     1  UNL1        0.0434
     13 C          62.9017   84.8510   10.0557 C.3     1  UNL1        0.0112
     14 C          62.8304   85.5574    8.0567 C.3     1  UNL1        0.0112
     15 C          61.9492   89.5470   11.3001 C.3     1  UNL1        0.0495
     16 C          60.5127   89.9068   11.5388 C.3     1  UNL1        0.0376
     17 C          60.3054   90.0597   10.0612 C.3     1  UNL1        0.0059
     18 C          60.7199   89.7539   13.0165 C.3     1  UNL1        0.0059
     19 C          59.0761   90.2666   11.7775 C.2     1  UNL1        0.0500
     20 O          58.5851   91.6468   11.4550 O.co2   1  UNL1       -0.5492
     21 O          58.1307   89.2463   12.3387 O.co2   1  UNL1       -0.5492
     22 C          63.9400   89.7998   13.8735 C.3     1  UNL1        0.1324
     23 C          64.5381   90.8894   13.0337 C.ar    1  UNL1        0.0004
     24 C          65.7068   91.6767   13.5479 C.ar    1  UNL1       -0.0023
     25 C          66.3049   92.7663   12.7083 C.ar    1  UNL1        0.0028
     26 C          65.7343   93.0685   11.3543 C.ar    1  UNL1        0.0358
     27 C          64.5657   92.2812   10.8402 C.ar    1  UNL1        0.0028
     28 C          63.9675   91.1917   11.6798 C.ar    1  UNL1       -0.0023
     29 C          66.3324   94.1580   10.5146 C.ar    1  UNL1        0.1623
     30 N          67.0477   93.8164    9.2412 N.ar    1  UNL1       -0.2250
     31 C          67.6458   94.9059    8.4013 C.ar    1  UNL1        0.1022
     32 C          67.5286   96.3371    8.8350 C.ar    1  UNL1        0.0414
     33 C          66.8133   96.6787   10.1084 C.ar    1  UNL1        0.1022
     34 N          66.2152   95.5892   10.9482 N.ar    1  UNL1       -0.2250
     35 O          64.4643   82.7125   14.2304 O.3     1  UNL1       -0.4690
     36 C          63.3231   81.7662   14.0020 C.3     1  UNL1        0.2508
     37 C          63.1760   81.0741   12.6793 C.ar    1  UNL1        0.1026
     38 C          63.5147   81.8000   11.4112 C.ar    1  UNL1        0.0185
     39 C          63.3675   81.1079   10.0886 C.ar    1  UNL1        0.0029
     40 C          62.8817   79.6898   10.0342 C.ar    1  UNL1        0.0207
     41 C          62.5430   78.9639   11.3023 C.ar    1  UNL1        0.0986
     42 N          62.6901   79.6560   12.6249 N.ar    1  UNL1       -0.2445
@<TRIPOS>UNITY_ATOM_ATTR
20 1
charge -1
@<TRIPOS>BOND
     1    11    12    1
     2    12    13    1
     3    12    14    1
     4    12    10    1
     5    10     1    1
     6     1     2   ar
     7     2    15    1
     8    15    16    1
     9    16    17    1
    10    16    18    1
    11    16    19    1
    12    19    20   ar
    13    19    21   ar
    14     2     3   ar
    15     3    22    1
    16    22    23    1
    17    23    24   ar
    18    24    25   ar
    19    25    26   ar
    20    26    29    1
    21    29    30   ar
    22    30    31   ar
    23    31    32   ar
    24    32    33   ar
    25    33    34   ar
    26    26    27   ar
    27    27    28   ar
    28     3     4   ar
    29     4     5   ar
    30     5     6   ar
    31     6     7   ar
    32     7    35    1
    33    35    36    1
    34    36    37    1
    35    37    38   ar
    36    38    39   ar
    37    39    40   ar
    38    40    41   ar
    39    41    42   ar
    40     7     8   ar
    41     8     9   ar
    42     9     1   ar
    43    28    23   ar
    44     9     4   ar
    45    34    29   ar
    46    42    37   ar
@<TRIPOS>MOLECULE
*****
 42 46 0 0 0
SMALL
GASTEIGER

@<TRIPOS>ATOM
      1 C          65.0903   91.9330   13.2145 C.ar    1  UNL1        0.0383
      2 C          65.2813   91.2387   14.5303 C.ar    1  UNL1        0.0433
      3 N          64.3704   90.0474   14.5623 N.ar    1  UNL1       -0.3260
      4 C          63.6164   90.0055   13.2662 C.ar    1  UNL1        0.0606
      5 C          62.5821   89.0567   12.7370 C.ar    1  UNL1        0.0203
      6 C          61.9929   89.2733   11.3747 C.ar    1  UNL1        0.0384
      7 C          62.4378   90.4387   10.5417 C.ar    1  UNL1        0.1392
      8 C          63.4721   91.3875   11.0709 C.ar    1  UNL1        0.0389
      9 C          64.0613   91.1709   12.4332 C.ar    1  UNL1        0.0256
     10 S          65.8032   93.1720   12.7597 S.3     1  UNL1       -0.1142
     11 C          65.6112   94.4928   11.1109 C.3     1  UNL1        0.0112
     12 C          66.3870   93.2375   11.3796 C.3     1  UNL1        0.0434
     13 C          67.1629   91.9821   11.6483 C.3     1  UNL1        0.0112
     14 C          66.9710   93.3030    9.9995 C.3     1  UNL1        0.0112
     15 C          66.2187   91.6614   15.6224 C.3     1  UNL1        0.0495
     16 C          67.5656   92.2247   15.2784 C.3     1  UNL1        0.0376
     17 C          67.9474   90.9221   14.6402 C.3     1  UNL1        0.0059
     18 C          67.1838   93.5273   15.9166 C.3     1  UNL1        0.0059
     19 C          68.9126   92.7880   14.9343 C.2     1  UNL1        0.0500
     20 O          69.7002   92.2075   13.7974 O.co2   1  UNL1       -0.5492
     21 O          69.4720   93.9318   15.7272 O.co2   1  UNL1       -0.5492
     22 C          64.2368   89.0697   15.6920 C.3     1  UNL1        0.1324
     23 C          63.9501   87.6256   15.4042 C.ar    1  UNL1        0.0004
     24 C          63.3096   86.7648   16.4523 C.ar    1  UNL1       -0.0023
     25 C          63.0229   85.3209   16.1646 C.ar    1  UNL1        0.0028
     26 C          63.3768   84.7378   14.8287 C.ar    1  UNL1        0.0358
     27 C          64.0174   85.5986   13.7805 C.ar    1  UNL1        0.0028
     28 C          64.3040   87.0425   14.0682 C.ar    1  UNL1       -0.0023
     29 C          63.0901   83.2938   14.5409 C.ar    1  UNL1        0.1623
     30 N          61.6770   82.7913   14.5610 N.ar    1  UNL1       -0.2250
     31 C          61.3902   81.3473   14.2732 C.ar    1  UNL1        0.1022
     32 C          62.5167   80.4059   13.9653 C.ar    1  UNL1        0.0414
     33 C          63.9299   80.9084   13.9451 C.ar    1  UNL1        0.1022
     34 N          64.2166   82.3524   14.2329 N.ar    1  UNL1       -0.2250
     35 O          61.8485   90.6553    9.1794 O.3     1  UNL1       -0.4690
     36 C          60.4979   90.0929    8.8484 C.3     1  UNL1        0.2508
     37 C          60.3558   88.6422    8.4941 C.ar    1  UNL1        0.1026
     38 C          59.1396   88.1660    7.7566 C.ar    1  UNL1        0.0185
     39 C          58.9975   86.7154    7.4024 C.ar    1  UNL1        0.0029
     40 C          60.0716   85.7410    7.7857 C.ar    1  UNL1        0.0207
     41 C          61.2878   86.2173    8.5232 C.ar    1  UNL1        0.0986
     42 N          61.4299   87.6679    8.8775 N.ar    1  UNL1       -0.2445
@<TRIPOS>UNITY_ATOM_ATTR
20 1
charge -1
@<TRIPOS>BOND
     1    11    12    1
     2    12    13    1
     3    12    14    1
     4    12    10    1
     5    10     1    1
     6     1     2   ar
     7     2    15    1
     8    15    16    1
     9    16    17    1
    10    16    18    1
    11    16    19    1
    12    19    20   ar
    13    19    21   ar
    14     2     3   ar
    15     3    22    1
    16    22    23    1
    17    23    24   ar
    18    24    25   ar
    19    25    26   ar
    20    26    29    1
    21    29    30   ar
    22    30    31   ar
    23    31    32   ar
    24    32    33   ar
    25    33    34   ar
    26    26    27   ar
    27    27    28   ar
    28     3     4   ar
    29     4     5   ar
    30     5     6   ar
    31     6     7   ar
    32     7    35    1
    33    35    36    1
    34    36    37    1
    35    37    38   ar
    36    38    39   ar
    37    39    40   ar
    38    40    41   ar
    39    41    42   ar
    40     7     8   ar
    41     8     9   ar
    42     9     1   ar
    43    28    23   ar
    44     9     4   ar
    45    34    29   ar
    46    42    37   ar
@<TRIPOS>MOLECULE
*****
 42 46 0 0 0
SMALL
GASTEIGER

@<TRIPOS>ATOM
      1 C          62.6004   88.7611   11.5895 C.ar    1  UNL1        0.0383
      2 C          62.5929   87.3397   12.0688 C.ar    1  UNL1        0.0433
      3 N          63.4949   87.2489   13.2639 N.ar    1  UNL1       -0.3260
      4 C          64.0598   88.6141   13.5232 C.ar    1  UNL1        0.0606
      5 C          65.0061   89.1269   14.5678 C.ar    1  UNL1        0.0203
      6 C          65.3996   90.5743   14.5777 C.ar    1  UNL1        0.0384
      7 C          64.8468   91.5089   13.5428 C.ar    1  UNL1        0.1392
      8 C          63.9004   90.9961   12.4981 C.ar    1  UNL1        0.0389
      9 C          63.5069   89.5487   12.4883 C.ar    1  UNL1        0.0256
     10 S          61.8355   89.3002   10.4171 S.3     1  UNL1       -0.1142
     11 C          60.6815   89.8345   12.1150 C.3     1  UNL1        0.0112
     12 C          60.5173   89.9830   10.6315 C.3     1  UNL1        0.0434
     13 C          60.3531   90.1315    9.1478 C.3     1  UNL1        0.0112
     14 C          59.1991   90.6658   10.8457 C.3     1  UNL1        0.0112
     15 C          61.8193   86.2080   11.4600 C.3     1  UNL1        0.0495
     16 C          61.6984   86.0987    9.9689 C.3     1  UNL1        0.0376
     17 C          60.2963   86.6262   10.0439 C.3     1  UNL1        0.0059
     18 C          63.1006   85.5712    9.8938 C.3     1  UNL1        0.0059
     19 C          61.5775   85.9895    8.4777 C.2     1  UNL1        0.0500
     20 O          60.4384   86.6580    7.7667 O.co2   1  UNL1       -0.5492
     21 O          62.5956   85.2118    7.6976 O.co2   1  UNL1       -0.5492
     22 C          63.7816   86.0103   14.0600 C.3     1  UNL1        0.1324
     23 C          63.5873   84.6584   13.4398 C.ar    1  UNL1        0.0004
     24 C          62.3765   83.8425   13.7838 C.ar    1  UNL1       -0.0023
     25 C          62.1821   82.4906   13.1637 C.ar    1  UNL1        0.0028
     26 C          63.1985   81.9546   12.1995 C.ar    1  UNL1        0.0358
     27 C          64.4093   82.7705   11.8555 C.ar    1  UNL1        0.0028
     28 C          64.6037   84.1224   12.4756 C.ar    1  UNL1       -0.0023
     29 C          63.0042   80.6027   11.5793 C.ar    1  UNL1        0.1623
     30 N          63.1586   80.4281   10.0975 N.ar    1  UNL1       -0.2250
     31 C          62.9643   79.0762    9.4772 C.ar    1  UNL1        0.1022
     32 C          62.6156   77.8989   10.3388 C.ar    1  UNL1        0.0414
     33 C          62.4612   78.0735   11.8206 C.ar    1  UNL1        0.1022
     34 N          62.6555   79.4253   12.4409 N.ar    1  UNL1       -0.2250
     35 O          65.2403   92.9563   13.5527 O.3     1  UNL1       -0.4690
     36 C          66.6473   93.3533   13.2167 C.3     1  UNL1        0.2508
     37 C          67.0920   93.3992   11.7848 C.ar    1  UNL1        0.1026
     38 C          67.6664   92.1737   11.1383 C.ar    1  UNL1        0.0185
     39 C          68.1111   92.2196    9.7065 C.ar    1  UNL1        0.0029
     40 C          67.9815   93.4911    8.9213 C.ar    1  UNL1        0.0207
     41 C          67.4071   94.7166    9.5678 C.ar    1  UNL1        0.0986
     42 N          66.9624   94.6707   10.9996 N.ar    1  UNL1       -0.2445
@<TRIPOS>UNITY_ATOM_ATTR
20 1
charge -1
@<TRIPOS>BOND
     1    11    12    1
     2    12    13    1
     3    12    14    1
     4    12    10    1
     5    10     1    1
     6     1     2   ar
     7     2    15    1
     8    15    16    1
     9    16    17    1
    10    16    18    1
    11    16    19    1
    12    19    20   ar
    13    19    21   ar
    14     2     3   ar
    15     3    22    1
    16    22    23    1
    17    23    24   ar
    18    24    25   ar
    19    25    26   ar
    20    26    29    1
    21    29    30   ar
    22    30    31   ar
    23    31    32   ar
    24    32    33   ar
    25    33    34   ar
    26    26    27   ar
    27    27    28   ar
    28     3     4   ar
    29     4     5   ar
    30     5     6   ar
    31     6     7   ar
    32     7    35    1
    33    35    36    1
    34    36    37    1
    35    37    38   ar
    36    38    39   ar
    37    39    40   ar
    38    40    41   ar
    39    41    42   ar
    40     7     8   ar
    41     8     9   ar
    42     9     1   ar
    43    28    23   ar
    44     9     4   ar
    45    34    29   ar
    46    42    37   ar
@<TRIPOS>MOLECULE
*****
 42 46 0 0 0
SMALL
GASTEIGER

@<TRIPOS>ATOM
      1 C          62.3730   87.1624   11.6654 C.ar    1  UNL1        0.0383
      2 C          62.2995   88.6544   11.8007 C.ar    1  UNL1        0.0433
      3 N          63.1178   89.0525   12.9932 N.ar    1  UNL1       -0.3260
      4 C          63.6970   87.8065   13.5948 C.ar    1  UNL1        0.0606
      5 C          64.5841   87.5847   14.7839 C.ar    1  UNL1        0.0203
      6 C          65.0108   86.1947   15.1523 C.ar    1  UNL1        0.0384
      7 C          64.5505   85.0265   14.3317 C.ar    1  UNL1        0.1392
      8 C          63.6634   85.2483   13.1426 C.ar    1  UNL1        0.0389
      9 C          63.2367   86.6383   12.7742 C.ar    1  UNL1        0.0256
     10 S          61.7008   86.3389   10.6071 S.3     1  UNL1       -0.1142
     11 C          62.1019   84.2601   10.7411 C.3     1  UNL1        0.0112
     12 C          62.4990   85.3585    9.7999 C.3     1  UNL1        0.0434
     13 C          62.8961   86.4569    8.8586 C.3     1  UNL1        0.0112
     14 C          63.2973   84.3782    8.9926 C.3     1  UNL1        0.0112
     15 C          61.5410   89.5850   10.9015 C.3     1  UNL1        0.0495
     16 C          60.6465   89.0315    9.8322 C.3     1  UNL1        0.0376
     17 C          61.6363   89.4521    8.7866 C.3     1  UNL1        0.0059
     18 C          59.6567   88.6110   10.8778 C.3     1  UNL1        0.0059
     19 C          59.7520   88.4780    8.7628 C.2     1  UNL1        0.0500
     20 O          59.5288   89.2515    7.4971 O.co2   1  UNL1       -0.5492
     21 O          59.0808   87.1510    8.9590 O.co2   1  UNL1       -0.5492
     22 C          63.3212   90.4511   13.4958 C.3     1  UNL1        0.1324
     23 C          64.0812   91.4431   12.6661 C.ar    1  UNL1        0.0004
     24 C          63.7544   91.6113   11.2118 C.ar    1  UNL1       -0.0023
     25 C          64.5143   92.6033   10.3821 C.ar    1  UNL1        0.0028
     26 C          65.6011   93.4271   11.0067 C.ar    1  UNL1        0.0358
     27 C          65.9279   93.2590   12.4610 C.ar    1  UNL1        0.0028
     28 C          65.1680   92.2670   13.2907 C.ar    1  UNL1       -0.0023
     29 C          66.3610   94.4191   10.1771 C.ar    1  UNL1        0.1623
     30 N          67.0811   93.9678    8.9411 N.ar    1  UNL1       -0.2250
     31 C          67.8412   94.9598    8.1113 C.ar    1  UNL1        0.1022
     32 C          67.8810   96.4031    8.5176 C.ar    1  UNL1        0.0414
     33 C          67.1609   96.8545    9.7536 C.ar    1  UNL1        0.1022
     34 N          66.4009   95.8626   10.5833 N.ar    1  UNL1       -0.2250
     35 O          64.9773   83.6365   14.7002 O.3     1  UNL1       -0.4690
     36 C          63.9454   82.5852   14.9828 C.3     1  UNL1        0.2508
     37 C          63.4980   81.6603   13.8898 C.ar    1  UNL1        0.1026
     38 C          63.8698   81.9475   12.4653 C.ar    1  UNL1        0.0185
     39 C          63.4224   81.0226   11.3724 C.ar    1  UNL1        0.0029
     40 C          62.6033   79.8106   11.7041 C.ar    1  UNL1        0.0207
     41 C          62.2316   79.5234   13.1286 C.ar    1  UNL1        0.0986
     42 N          62.6789   80.4482   14.2215 N.ar    1  UNL1       -0.2445
@<TRIPOS>UNITY_ATOM_ATTR
20 1
charge -1
@<TRIPOS>BOND
     1    11    12    1
     2    12    13    1
     3    12    14    1
     4    12    10    1
     5    10     1    1
     6     1     2   ar
     7     2    15    1
     8    15    16    1
     9    16    17    1
    10    16    18    1
    11    16    19    1
    12    19    20   ar
    13    19    21   ar
    14     2     3   ar
    15     3    22    1
    16    22    23    1
    17    23    24   ar
    18    24    25   ar
    19    25    26   ar
    20    26    29    1
    21    29    30   ar
    22    30    31   ar
    23    31    32   ar
    24    32    33   ar
    25    33    34   ar
    26    26    27   ar
    27    27    28   ar
    28     3     4   ar
    29     4     5   ar
    30     5     6   ar
    31     6     7   ar
    32     7    35    1
    33    35    36    1
    34    36    37    1
    35    37    38   ar
    36    38    39   ar
    37    39    40   ar
    38    40    41   ar
    39    41    42   ar
    40     7     8   ar
    41     8     9   ar
    42     9     1   ar
    43    28    23   ar
    44     9     4   ar
    45    34    29   ar
    46    42    37   ar
@<TRIPOS>MOLECULE
*****
 42 46 0 0 0
SMALL
GASTEIGER

@<TRIPOS>ATOM
      1 C          62.7661   86.4939   12.6214 C.ar    1  UNL1        0.0383
      2 C          63.6223   87.3314   13.5245 C.ar    1  UNL1        0.0433
      3 N          63.5094   88.7588   13.0777 N.ar    1  UNL1       -0.3260
      4 C          62.5834   88.8036   11.8985 C.ar    1  UNL1        0.0606
      5 C          62.0992   89.9381   11.0451 C.ar    1  UNL1        0.0203
      6 C          61.1555   89.6728    9.9097 C.ar    1  UNL1        0.0384
      7 C          60.6961   88.2730    9.6277 C.ar    1  UNL1        0.1392
      8 C          61.1803   87.1385   10.4811 C.ar    1  UNL1        0.0389
      9 C          62.1240   87.4038   11.6165 C.ar    1  UNL1        0.0256
     10 S          62.5839   85.0075   12.7081 S.3     1  UNL1       -0.1142
     11 C          63.6736   83.2660   13.2367 C.3     1  UNL1        0.0112
     12 C          63.5332   84.0926   11.9930 C.3     1  UNL1        0.0434
     13 C          63.3929   84.9192   10.7491 C.3     1  UNL1        0.0112
     14 C          64.4826   83.1776   11.2778 C.3     1  UNL1        0.0112
     15 C          64.4467   86.8295   14.6727 C.3     1  UNL1        0.0495
     16 C          63.7780   86.4001   15.9449 C.3     1  UNL1        0.0376
     17 C          64.2142   84.9865   15.6970 C.3     1  UNL1        0.0059
     18 C          63.3419   87.8137   16.1928 C.3     1  UNL1        0.0059
     19 C          63.1093   85.9706   17.2171 C.2     1  UNL1        0.0500
     20 O          63.0698   86.8995   18.3942 O.co2   1  UNL1       -0.5492
     21 O          62.4802   84.6123   17.3122 O.co2   1  UNL1       -0.5492
     22 C          64.2011   89.9350   13.7006 C.3     1  UNL1        0.1324
     23 C          64.7137   91.0482   12.8356 C.ar    1  UNL1        0.0004
     24 C          65.8593   91.8955   13.3043 C.ar    1  UNL1       -0.0023
     25 C          66.3719   93.0086   12.4394 C.ar    1  UNL1        0.0028
     26 C          65.7389   93.2745   11.1058 C.ar    1  UNL1        0.0358
     27 C          64.5932   92.4273   10.6371 C.ar    1  UNL1        0.0028
     28 C          64.0806   91.3141   11.5020 C.ar    1  UNL1       -0.0023
     29 C          66.2514   94.3877   10.2408 C.ar    1  UNL1        0.1623
     30 N          67.4106   94.1485    9.3194 N.ar    1  UNL1       -0.2250
     31 C          67.9233   95.2616    8.4543 C.ar    1  UNL1        0.1022
     32 C          67.2766   96.6139    8.5108 C.ar    1  UNL1        0.0414
     33 C          66.1174   96.8531    9.4322 C.ar    1  UNL1        0.1022
     34 N          65.6048   95.7400   10.2972 N.ar    1  UNL1       -0.2250
     35 O          59.7524   88.0078    8.4923 O.3     1  UNL1       -0.4690
     36 C          59.4551   86.5971    8.0780 C.3     1  UNL1        0.2508
     37 C          60.5182   85.7691    7.4190 C.ar    1  UNL1        0.1026
     38 C          61.9281   85.8146    7.9290 C.ar    1  UNL1        0.0185
     39 C          62.9911   84.9866    7.2699 C.ar    1  UNL1        0.0029
     40 C          62.6442   84.1131    6.1008 C.ar    1  UNL1        0.0207
     41 C          61.2343   84.0677    5.5908 C.ar    1  UNL1        0.0986
     42 N          60.1713   84.8957    6.2499 N.ar    1  UNL1       -0.2445
@<TRIPOS>UNITY_ATOM_ATTR
20 1
charge -1
@<TRIPOS>BOND
     1    11    12    1
     2    12    13    1
     3    12    14    1
     4    12    10    1
     5    10     1    1
     6     1     2   ar
     7     2    15    1
     8    15    16    1
     9    16    17    1
    10    16    18    1
    11    16    19    1
    12    19    20   ar
    13    19    21   ar
    14     2     3   ar
    15     3    22    1
    16    22    23    1
    17    23    24   ar
    18    24    25   ar
    19    25    26   ar
    20    26    29    1
    21    29    30   ar
    22    30    31   ar
    23    31    32   ar
    24    32    33   ar
    25    33    34   ar
    26    26    27   ar
    27    27    28   ar
    28     3     4   ar
    29     4     5   ar
    30     5     6   ar
    31     6     7   ar
    32     7    35    1
    33    35    36    1
    34    36    37    1
    35    37    38   ar
    36    38    39   ar
    37    39    40   ar
    38    40    41   ar
    39    41    42   ar
    40     7     8   ar
    41     8     9   ar
    42     9     1   ar
    43    28    23   ar
    44     9     4   ar
    45    34    29   ar
    46    42    37   ar
