@<TRIPOS>MOLECULE
*****
 23 25 0 0 0
SMALL
GASTEIGER

@<TRIPOS>ATOM
      1 C          63.3326   84.2906   13.9530 C.3     1  UNL1        0.1884
      2 F          61.4440   86.7975    9.8119 F       1  UNL1       -0.2033
      3 C          62.2963   85.7093   10.3944 C.ar    1  UNL1        0.1504
      4 C          62.3883   85.5440   11.8824 C.ar    1  UNL1        0.0297
      5 C          63.2407   84.4559   12.4649 C.ar    1  UNL1        0.0195
      6 C          64.0011   83.5330   11.5594 C.ar    1  UNL1        0.0002
      7 C          63.9091   83.6982   10.0714 C.ar    1  UNL1        0.0135
      8 C          63.0568   84.7864    9.4889 C.ar    1  UNL1        0.0850
      9 CL         62.9648   84.9517    8.0008 Cl      1  UNL1       -0.0799
     10 C          62.4064   83.3471   14.6614 C.3     1  UNL1        0.0510
     11 C          62.2716   81.9306   14.1868 C.3     1  UNL1        0.0354
     12 C          63.2269   80.8743   13.7162 C.3     1  UNL1        0.0700
     13 N          62.0811   79.9274   13.5156 N.3     1  UNL1       -0.2974
     14 C          61.1257   80.9837   13.9862 C.3     1  UNL1        0.0700
     15 H          62.1147   79.1007   14.1121 H       1  UNL1        0.1232
     16 O          64.3508   85.0688   14.7325 O.3     1  UNL1       -0.4725
     17 C          64.0032   86.4218   15.2790 C.ar    1  UNL1        0.1661
     18 C          64.3888   87.6581   14.5222 C.ar    1  UNL1        0.0392
     19 C          64.0412   89.0110   15.0686 C.ar    1  UNL1        0.0033
     20 C          63.3080   89.1277   16.3720 C.ar    1  UNL1        0.0025
     21 C          62.9224   87.8914   17.1289 C.ar    1  UNL1        0.0328
     22 C          63.2699   86.5384   16.5824 C.ar    1  UNL1        0.1738
     23 F          62.8843   85.3022   17.3393 F       1  UNL1       -0.2010
@<TRIPOS>BOND
     1     2     3    1
     2     3     4   ar
     3     4     5   ar
     4     5     1    1
     5     1    10    1
     6    10    11    1
     7    11    12    1
     8    12    13    1
     9    13    14    1
    10     1    16    1
    11    16    17    1
    12    17    18   ar
    13    18    19   ar
    14    19    20   ar
    15    20    21   ar
    16    21    22   ar
    17    22    23    1
    18     5     6   ar
    19     6     7   ar
    20     7     8   ar
    21     8     9    1
    22     8     3   ar
    23    14    11    1
    24    22    17   ar
    25    13    15    1
@<TRIPOS>MOLECULE
*****
 23 25 0 0 0
SMALL
GASTEIGER

@<TRIPOS>ATOM
      1 C          62.1084   86.5310   10.7193 C.3     1  UNL1        0.1884
      2 F          64.2003   81.8098   10.1409 F       1  UNL1       -0.2033
      3 C          63.6684   82.8950   11.0294 C.ar    1  UNL1        0.1504
      4 C          63.1544   84.1704   10.4302 C.ar    1  UNL1        0.0297
      5 C          62.6225   85.2555   11.3187 C.ar    1  UNL1        0.0195
      6 C          62.6046   85.0653   12.8064 C.ar    1  UNL1        0.0002
      7 C          63.1186   83.7900   13.4057 C.ar    1  UNL1        0.0135
      8 C          63.6505   82.7048   12.5172 C.ar    1  UNL1        0.0850
      9 CL         64.1645   81.4294   13.1165 Cl      1  UNL1       -0.0799
     10 C          61.9690   86.6576    9.2312 C.3     1  UNL1        0.0510
     11 C          60.6063   86.6824    8.6049 C.3     1  UNL1        0.0354
     12 C          59.3637   87.4995    8.8008 C.3     1  UNL1        0.0700
     13 N          58.6790   86.7175    7.7193 N.3     1  UNL1       -0.2974
     14 C          59.9216   85.9004    7.5235 C.3     1  UNL1        0.0700
     15 H          58.4144   87.2743    6.9067 H       1  UNL1        0.1232
     16 O          61.7338   87.6797   11.6081 O.3     1  UNL1       -0.4725
     17 C          62.4815   88.9766   11.5128 C.ar    1  UNL1        0.1661
     18 C          62.2756   89.8759   10.3302 C.ar    1  UNL1        0.0392
     19 C          63.0232   91.1728   10.2349 C.ar    1  UNL1        0.0033
     20 C          63.9768   91.5703   11.3223 C.ar    1  UNL1        0.0025
     21 C          64.1828   90.6710   12.5051 C.ar    1  UNL1        0.0328
     22 C          63.4351   89.3741   12.6004 C.ar    1  UNL1        0.1738
     23 F          63.6410   88.4748   13.7830 F       1  UNL1       -0.2010
@<TRIPOS>BOND
     1     2     3    1
     2     3     4   ar
     3     4     5   ar
     4     5     1    1
     5     1    10    1
     6    10    11    1
     7    11    12    1
     8    12    13    1
     9    13    14    1
    10     1    16    1
    11    16    17    1
    12    17    18   ar
    13    18    19   ar
    14    19    20   ar
    15    20    21   ar
    16    21    22   ar
    17    22    23    1
    18     5     6   ar
    19     6     7   ar
    20     7     8   ar
    21     8     9    1
    22     8     3   ar
    23    14    11    1
    24    22    17   ar
    25    13    15    1
@<TRIPOS>MOLECULE
*****
 23 25 0 0 0
SMALL
GASTEIGER

@<TRIPOS>ATOM
      1 C          62.0563   86.5214   10.6417 C.3     1  UNL1        0.1884
      2 F          62.9358   83.5879   14.8394 F       1  UNL1       -0.2033
      3 C          63.0303   83.7958   13.3569 C.ar    1  UNL1        0.1504
      4 C          62.4961   85.0546   12.7406 C.ar    1  UNL1        0.0297
      5 C          62.5905   85.2625   11.2580 C.ar    1  UNL1        0.0195
      6 C          63.2192   84.2116   10.3919 C.ar    1  UNL1        0.0002
      7 C          63.7534   82.9528   11.0083 C.ar    1  UNL1        0.0135
      8 C          63.6589   82.7449   12.4908 C.ar    1  UNL1        0.0850
      9 CL         64.1932   81.4860   13.1071 Cl      1  UNL1       -0.0799
     10 C          61.9622   86.6447    9.1497 C.3     1  UNL1        0.0510
     11 C          60.6237   86.5865    8.4753 C.3     1  UNL1        0.0354
     12 C          59.3241   87.3189    8.6324 C.3     1  UNL1        0.0700
     13 N          58.7307   86.5042    7.5215 N.3     1  UNL1       -0.2974
     14 C          60.0302   85.7718    7.3644 C.3     1  UNL1        0.0700
     15 H          58.4589   87.0502    6.7039 H       1  UNL1        0.1232
     16 O          61.6162   87.6570   11.5173 O.3     1  UNL1       -0.4725
     17 C          62.4461   88.9036   11.6026 C.ar    1  UNL1        0.1661
     18 C          63.3583   89.1186   12.7737 C.ar    1  UNL1        0.0392
     19 C          64.1882   90.3652   12.8589 C.ar    1  UNL1        0.0033
     20 C          64.1059   91.3968   11.7731 C.ar    1  UNL1        0.0025
     21 C          63.1936   91.1818   10.6019 C.ar    1  UNL1        0.0328
     22 C          62.3637   89.9352   10.5166 C.ar    1  UNL1        0.1738
     23 F          61.4514   89.7201    9.3456 F       1  UNL1       -0.2010
@<TRIPOS>BOND
     1     2     3    1
     2     3     4   ar
     3     4     5   ar
     4     5     1    1
     5     1    10    1
     6    10    11    1
     7    11    12    1
     8    12    13    1
     9    13    14    1
    10     1    16    1
    11    16    17    1
    12    17    18   ar
    13    18    19   ar
    14    19    20   ar
    15    20    21   ar
    16    21    22   ar
    17    22    23    1
    18     5     6   ar
    19     6     7   ar
    20     7     8   ar
    21     8     9    1
    22     8     3   ar
    23    14    11    1
    24    22    17   ar
    25    13    15    1
@<TRIPOS>MOLECULE
*****
 23 25 0 0 0
SMALL
GASTEIGER

@<TRIPOS>ATOM
      1 C          63.2574   84.1801   14.1323 C.3     1  UNL1        0.1884
      2 F          64.6875   82.7669    9.3409 F       1  UNL1       -0.2033
      3 C          63.9047   83.6667   10.2506 C.ar    1  UNL1        0.1504
      4 C          63.9724   83.4735   11.7366 C.ar    1  UNL1        0.0297
      5 C          63.1896   84.3733   12.6463 C.ar    1  UNL1        0.0195
      6 C          62.3391   85.4662   12.0701 C.ar    1  UNL1        0.0002
      7 C          62.2714   85.6594   10.5842 C.ar    1  UNL1        0.0135
      8 C          63.0542   84.7596    9.6745 C.ar    1  UNL1        0.0850
      9 CL         62.9864   84.9528    8.1884 Cl      1  UNL1       -0.0799
     10 C          62.3265   83.2162   14.8065 C.3     1  UNL1        0.0510
     11 C          62.1675   81.8256   14.2674 C.3     1  UNL1        0.0354
     12 C          63.1073   80.7633   13.7791 C.3     1  UNL1        0.0700
     13 N          61.9425   79.8588   13.5050 N.3     1  UNL1       -0.2974
     14 C          61.0027   80.9210   13.9933 C.3     1  UNL1        0.0700
     15 H          61.9358   79.0069   14.0660 H       1  UNL1        0.1232
     16 O          64.2560   84.9507   14.9441 O.3     1  UNL1       -0.4725
     17 C          63.8354   86.1981   15.6631 C.ar    1  UNL1        0.1661
     18 C          63.2468   86.1080   17.0398 C.ar    1  UNL1        0.0392
     19 C          62.8263   87.3554   17.7589 C.ar    1  UNL1        0.0033
     20 C          62.9943   88.6930   17.1012 C.ar    1  UNL1        0.0025
     21 C          63.5830   88.7832   15.7244 C.ar    1  UNL1        0.0328
     22 C          64.0035   87.5357   15.0053 C.ar    1  UNL1        0.1738
     23 F          64.5921   87.6259   13.6286 F       1  UNL1       -0.2010
@<TRIPOS>BOND
     1     2     3    1
     2     3     4   ar
     3     4     5   ar
     4     5     1    1
     5     1    10    1
     6    10    11    1
     7    11    12    1
     8    12    13    1
     9    13    14    1
    10     1    16    1
    11    16    17    1
    12    17    18   ar
    13    18    19   ar
    14    19    20   ar
    15    20    21   ar
    16    21    22   ar
    17    22    23    1
    18     5     6   ar
    19     6     7   ar
    20     7     8   ar
    21     8     9    1
    22     8     3   ar
    23    14    11    1
    24    22    17   ar
    25    13    15    1
@<TRIPOS>MOLECULE
*****
 23 25 0 0 0
SMALL
GASTEIGER

@<TRIPOS>ATOM
      1 C          65.0007   91.8293   12.9506 C.3     1  UNL1        0.1884
      2 F          62.4796   87.3579   12.1443 F       1  UNL1       -0.2033
      3 C          62.8267   88.7504   11.7080 C.ar    1  UNL1        0.1504
      4 C          63.7401   89.5936   12.5474 C.ar    1  UNL1        0.0297
      5 C          64.0873   90.9861   12.1111 C.ar    1  UNL1        0.0195
      6 C          63.5210   91.5354   10.8354 C.ar    1  UNL1        0.0002
      7 C          62.6076   90.6922    9.9959 C.ar    1  UNL1        0.0135
      8 C          62.2605   89.2997   10.4323 C.ar    1  UNL1        0.0850
      9 CL         61.3470   88.4565    9.5928 Cl      1  UNL1       -0.0799
     10 C          65.5420   91.2914   14.2420 C.3     1  UNL1        0.0510
     11 C          66.6967   91.9738   14.9134 C.3     1  UNL1        0.0354
     12 C          66.8781   92.7450   16.1872 C.3     1  UNL1        0.0700
     13 N          68.3297   92.9390   15.8630 N.3     1  UNL1       -0.2974
     14 C          68.1484   92.1678   14.5893 C.3     1  UNL1        0.0700
     15 H          68.9670   92.5008   16.5280 H       1  UNL1        0.1232
     16 O          65.3729   93.2103   12.4987 O.3     1  UNL1       -0.4725
     17 C          66.3390   93.3939   11.3660 C.ar    1  UNL1        0.1661
     18 C          67.1948   92.2469   10.9168 C.ar    1  UNL1        0.0392
     19 C          68.1609   92.4305    9.7841 C.ar    1  UNL1        0.0033
     20 C          68.2712   93.7612    9.1007 C.ar    1  UNL1        0.0025
     21 C          67.4154   94.9084    9.5500 C.ar    1  UNL1        0.0328
     22 C          66.4493   94.7247   10.6827 C.ar    1  UNL1        0.1738
     23 F          65.5936   95.8718   11.1320 F       1  UNL1       -0.2010
@<TRIPOS>BOND
     1     2     3    1
     2     3     4   ar
     3     4     5   ar
     4     5     1    1
     5     1    10    1
     6    10    11    1
     7    11    12    1
     8    12    13    1
     9    13    14    1
    10     1    16    1
    11    16    17    1
    12    17    18   ar
    13    18    19   ar
    14    19    20   ar
    15    20    21   ar
    16    21    22   ar
    17    22    23    1
    18     5     6   ar
    19     6     7   ar
    20     7     8   ar
    21     8     9    1
    22     8     3   ar
    23    14    11    1
    24    22    17   ar
    25    13    15    1
@<TRIPOS>MOLECULE
*****
 23 25 0 0 0
SMALL
GASTEIGER

@<TRIPOS>ATOM
      1 C          62.3797   86.4857   11.3308 C.3     1  UNL1        0.1884
      2 F          59.2719   86.0997    7.1843 F       1  UNL1       -0.2033
      3 C          60.5770   85.8031    7.8617 C.ar    1  UNL1        0.1504
      4 C          60.8258   86.2927    9.2575 C.ar    1  UNL1        0.0297
      5 C          62.1309   85.9961    9.9349 C.ar    1  UNL1        0.0195
      6 C          63.1871   85.2099    9.2164 C.ar    1  UNL1        0.0002
      7 C          62.9383   84.7203    7.8206 C.ar    1  UNL1        0.0135
      8 C          61.6332   85.0169    7.1432 C.ar    1  UNL1        0.0850
      9 CL         61.3844   84.5273    5.7473 Cl      1  UNL1       -0.0799
     10 C          63.2584   85.6977   12.2565 C.3     1  UNL1        0.0510
     11 C          62.8433   84.3255   12.6977 C.3     1  UNL1        0.0354
     12 C          62.4256   83.7115   14.0009 C.3     1  UNL1        0.0700
     13 N          62.2564   82.3849   13.3217 N.3     1  UNL1       -0.2974
     14 C          62.6741   82.9989   12.0184 C.3     1  UNL1        0.0700
     15 H          61.2991   82.0328   13.3282 H       1  UNL1        0.1232
     16 O          61.7498   87.7633   11.8009 O.3     1  UNL1       -0.4725
     17 C          62.5022   89.0560   11.6890 C.ar    1  UNL1        0.1661
     18 C          63.3587   89.5263   12.8270 C.ar    1  UNL1        0.0392
     19 C          64.1112   90.8191   12.7151 C.ar    1  UNL1        0.0033
     20 C          64.0072   91.6416   11.4651 C.ar    1  UNL1        0.0025
     21 C          63.1507   91.1714   10.3270 C.ar    1  UNL1        0.0328
     22 C          62.3982   89.8786   10.4389 C.ar    1  UNL1        0.1738
     23 F          61.5417   89.4084    9.3008 F       1  UNL1       -0.2010
@<TRIPOS>BOND
     1     2     3    1
     2     3     4   ar
     3     4     5   ar
     4     5     1    1
     5     1    10    1
     6    10    11    1
     7    11    12    1
     8    12    13    1
     9    13    14    1
    10     1    16    1
    11    16    17    1
    12    17    18   ar
    13    18    19   ar
    14    19    20   ar
    15    20    21   ar
    16    21    22   ar
    17    22    23    1
    18     5     6   ar
    19     6     7   ar
    20     7     8   ar
    21     8     9    1
    22     8     3   ar
    23    14    11    1
    24    22    17   ar
    25    13    15    1
@<TRIPOS>MOLECULE
*****
 23 25 0 0 0
SMALL
GASTEIGER

@<TRIPOS>ATOM
      1 C          63.9948   90.0429   13.4611 C.3     1  UNL1        0.1884
      2 F          61.6763   86.4552   10.5025 F       1  UNL1       -0.2033
      3 C          61.9685   87.8939   10.8104 C.ar    1  UNL1        0.1504
      4 C          62.8355   88.2491   11.9817 C.ar    1  UNL1        0.0297
      5 C          63.1278   89.6878   12.2896 C.ar    1  UNL1        0.0195
      6 C          62.5530   90.7713   11.4262 C.ar    1  UNL1        0.0002
      7 C          61.6859   90.4161   10.2549 C.ar    1  UNL1        0.0135
      8 C          61.3937   88.9774    9.9470 C.ar    1  UNL1        0.0850
      9 CL         60.5267   88.6223    8.7755 Cl      1  UNL1       -0.0799
     10 C          64.5739   88.9592   14.3214 C.3     1  UNL1        0.0510
     11 C          63.8291   88.4862   15.5345 C.3     1  UNL1        0.0354
     12 C          63.0567   89.1551   16.6326 C.3     1  UNL1        0.0700
     13 N          62.7759   87.8173   17.2500 N.3     1  UNL1       -0.2974
     14 C          63.5483   87.1483   16.1519 C.3     1  UNL1        0.0700
     15 H          61.7868   87.5691   17.2742 H       1  UNL1        0.1232
     16 O          64.2828   91.4817   13.7721 O.3     1  UNL1       -0.4725
     17 C          65.6263   91.8789   14.3081 C.ar    1  UNL1        0.1661
     18 C          66.8271   91.8624   13.4093 C.ar    1  UNL1        0.0392
     19 C          68.1706   92.2595   13.9454 C.ar    1  UNL1        0.0033
     20 C          68.3133   92.6731   15.3801 C.ar    1  UNL1        0.0025
     21 C          67.1125   92.6896   16.2789 C.ar    1  UNL1        0.0328
     22 C          65.7690   92.2925   15.7429 C.ar    1  UNL1        0.1738
     23 F          64.5682   92.3089   16.6417 F       1  UNL1       -0.2010
@<TRIPOS>BOND
     1     2     3    1
     2     3     4   ar
     3     4     5   ar
     4     5     1    1
     5     1    10    1
     6    10    11    1
     7    11    12    1
     8    12    13    1
     9    13    14    1
    10     1    16    1
    11    16    17    1
    12    17    18   ar
    13    18    19   ar
    14    19    20   ar
    15    20    21   ar
    16    21    22   ar
    17    22    23    1
    18     5     6   ar
    19     6     7   ar
    20     7     8   ar
    21     8     9    1
    22     8     3   ar
    23    14    11    1
    24    22    17   ar
    25    13    15    1
@<TRIPOS>MOLECULE
*****
 23 25 0 0 0
SMALL
GASTEIGER

@<TRIPOS>ATOM
      1 C          63.2223   89.5425   12.6670 C.3     1  UNL1        0.1884
      2 F          60.4364   89.1368    8.2996 F       1  UNL1       -0.2033
      3 C          61.1783   88.4907    9.4319 C.ar    1  UNL1        0.1504
      4 C          61.8293   89.3396   10.4833 C.ar    1  UNL1        0.0297
      5 C          62.5712   88.6935   11.6156 C.ar    1  UNL1        0.0195
      6 C          62.6621   87.1985   11.6965 C.ar    1  UNL1        0.0002
      7 C          62.0110   86.3496   10.6452 C.ar    1  UNL1        0.0135
      8 C          61.2691   86.9957    9.5129 C.ar    1  UNL1        0.0850
      9 CL         60.6181   86.1466    8.4615 Cl      1  UNL1       -0.0799
     10 C          63.8695   88.8979   13.8568 C.3     1  UNL1        0.0510
     11 C          63.6341   89.4521   15.2306 C.3     1  UNL1        0.0354
     12 C          63.7914   90.7987   15.8724 C.3     1  UNL1        0.0700
     13 N          63.3012   90.2358   17.1735 N.3     1  UNL1       -0.2974
     14 C          63.1438   88.8892   16.5317 C.3     1  UNL1        0.0700
     15 H          62.4265   90.6456   17.5013 H       1  UNL1        0.1232
     16 O          63.2262   91.0361   12.5285 O.3     1  UNL1       -0.4725
     17 C          64.4774   91.7468   12.1048 C.ar    1  UNL1        0.1661
     18 C          65.5839   91.9705   13.0924 C.ar    1  UNL1        0.0392
     19 C          66.8351   92.6812   12.6687 C.ar    1  UNL1        0.0033
     20 C          66.9796   93.1682   11.2574 C.ar    1  UNL1        0.0025
     21 C          65.8731   92.9445   10.2697 C.ar    1  UNL1        0.0328
     22 C          64.6219   92.2338   10.6934 C.ar    1  UNL1        0.1738
     23 F          63.5154   92.0101    9.7058 F       1  UNL1       -0.2010
@<TRIPOS>BOND
     1     2     3    1
     2     3     4   ar
     3     4     5   ar
     4     5     1    1
     5     1    10    1
     6    10    11    1
     7    11    12    1
     8    12    13    1
     9    13    14    1
    10     1    16    1
    11    16    17    1
    12    17    18   ar
    13    18    19   ar
    14    19    20   ar
    15    20    21   ar
    16    21    22   ar
    17    22    23    1
    18     5     6   ar
    19     6     7   ar
    20     7     8   ar
    21     8     9    1
    22     8     3   ar
    23    14    11    1
    24    22    17   ar
    25    13    15    1
@<TRIPOS>MOLECULE
*****
 23 25 0 0 0
SMALL
GASTEIGER

@<TRIPOS>ATOM
      1 C          63.0884   86.1996   12.9220 C.3     1  UNL1        0.1884
      2 F          62.9896   91.0721   11.1195 F       1  UNL1       -0.2033
      3 C          63.4136   90.0813   12.1629 C.ar    1  UNL1        0.1504
      4 C          63.0390   88.6359   12.0208 C.ar    1  UNL1        0.0297
      5 C          63.4630   87.6451   13.0641 C.ar    1  UNL1        0.0195
      6 C          64.2616   88.0998   14.2496 C.ar    1  UNL1        0.0002
      7 C          64.6362   89.5453   14.3917 C.ar    1  UNL1        0.0135
      8 C          64.2122   90.5361   13.3483 C.ar    1  UNL1        0.0850
      9 CL         64.5868   91.9816   13.4905 Cl      1  UNL1       -0.0799
     10 C          63.9226   85.1405   13.5795 C.3     1  UNL1        0.0510
     11 C          63.2735   83.8972   14.1114 C.3     1  UNL1        0.0354
     12 C          62.9924   82.5297   13.5630 C.3     1  UNL1        0.0700
     13 N          62.3555   82.1390   14.8637 N.3     1  UNL1       -0.2974
     14 C          62.6366   83.5065   15.4121 C.3     1  UNL1        0.0700
     15 H          62.8384   81.3862   15.3542 H       1  UNL1        0.1232
     16 O          61.8796   85.8132   12.1223 O.3     1  UNL1       -0.4725
     17 C          61.9863   85.6448   10.6356 C.ar    1  UNL1        0.1661
     18 C          63.0627   84.7767   10.0545 C.ar    1  UNL1        0.0392
     19 C          63.1693   84.6083    8.5678 C.ar    1  UNL1        0.0033
     20 C          62.1996   85.3079    7.6623 C.ar    1  UNL1        0.0025
     21 C          61.1230   86.1759    8.2434 C.ar    1  UNL1        0.0328
     22 C          61.0164   86.3444    9.7301 C.ar    1  UNL1        0.1738
     23 F          59.9400   87.2124   10.3112 F       1  UNL1       -0.2010
@<TRIPOS>BOND
     1     2     3    1
     2     3     4   ar
     3     4     5   ar
     4     5     1    1
     5     1    10    1
     6    10    11    1
     7    11    12    1
     8    12    13    1
     9    13    14    1
    10     1    16    1
    11    16    17    1
    12    17    18   ar
    13    18    19   ar
    14    19    20   ar
    15    20    21   ar
    16    21    22   ar
    17    22    23    1
    18     5     6   ar
    19     6     7   ar
    20     7     8   ar
    21     8     9    1
    22     8     3   ar
    23    14    11    1
    24    22    17   ar
    25    13    15    1
