@<TRIPOS>MOLECULE
*****
 23 26 0 0 0
SMALL
GASTEIGER

@<TRIPOS>ATOM
      1 C          65.4767   92.1113   13.5570 C.2     1  UNL1        0.2293
      2 O          65.3444   93.1274   12.4616 O.2     1  UNL1       -0.2745
      3 N          64.7492   90.8033   13.4587 N.am    1  UNL1       -0.2586
      4 C          64.7851   89.6962   14.4702 C.3     1  UNL1        0.1029
      5 C          63.9161   88.5814   13.9683 C.3     1  UNL1        0.0495
      6 C          63.3431   88.9994   12.6465 C.ar    1  UNL1       -0.0068
      7 C          62.4191   88.3071   11.6890 C.ar    1  UNL1       -0.0029
      8 C          62.0100   88.9879   10.4167 C.ar    1  UNL1        0.0013
      9 C          62.5249   90.3612   10.1017 C.ar    1  UNL1        0.0013
     10 C          63.4489   91.0535   11.0592 C.ar    1  UNL1        0.0146
     11 C          63.8580   90.3726   12.3317 C.ar    1  UNL1        0.0499
     12 C          61.0859   88.2956    9.4592 C.ar    1  UNL1        0.0192
     13 C          59.7158   88.8507    9.2051 C.ar    1  UNL1        0.0988
     14 N          58.7917   88.1583    8.2476 N.ar    1  UNL1       -0.2423
     15 C          59.2378   86.9109    7.5442 C.ar    1  UNL1        0.0988
     16 C          60.6080   86.3557    7.7982 C.ar    1  UNL1        0.0192
     17 C          61.0540   85.1082    7.0948 C.ar    1  UNL1        0.0015
     18 C          62.4242   84.5531    7.3489 C.ar    1  UNL1        0.0000
     19 C          63.3482   85.2455    8.3064 C.ar    1  UNL1        0.0000
     20 C          62.9021   86.4929    9.0098 C.ar    1  UNL1        0.0001
     21 C          61.5320   87.0480    8.7557 C.ar    1  UNL1        0.0030
     22 C          67.7806   91.9970   14.7524 C.3     1  UNL1        0.0101
     23 C          66.3367   92.4032   14.7509 C.3     1  UNL1        0.0856
@<TRIPOS>BOND
     1    22    23    1
     2    23     1    1
     3     1     2    2
     4     1     3   am
     5     3     4    1
     6     4     5    1
     7     5     6    1
     8     6     7   ar
     9     7     8   ar
    10     8    12    1
    11    12    13   ar
    12    13    14   ar
    13    14    15   ar
    14    15    16   ar
    15    16    17   ar
    16    17    18   ar
    17    18    19   ar
    18    19    20   ar
    19    20    21   ar
    20     8     9   ar
    21     9    10   ar
    22    10    11   ar
    23    11     3    1
    24    11     6   ar
    25    21    12   ar
    26    21    16   ar
@<TRIPOS>MOLECULE
*****
 23 26 0 0 0
SMALL
GASTEIGER

@<TRIPOS>ATOM
      1 C          60.0163   87.5497    8.3655 C.2     1  UNL1        0.2293
      2 O          59.7468   88.9322    7.8500 O.2     1  UNL1       -0.2745
      3 N          60.9276   87.3517    9.5404 N.am    1  UNL1       -0.2586
      4 C          61.2893   86.0361   10.1638 C.3     1  UNL1        0.1029
      5 C          62.2225   86.3058   11.3068 C.3     1  UNL1        0.0495
      6 C          62.4375   87.7880   11.3898 C.ar    1  UNL1       -0.0068
      7 C          63.2586   88.6326   12.3184 C.ar    1  UNL1       -0.0029
      8 C          63.2795   90.1236   12.1554 C.ar    1  UNL1        0.0013
      9 C          62.4792   90.7699   11.0637 C.ar    1  UNL1        0.0013
     10 C          61.6581   89.9253   10.1350 C.ar    1  UNL1        0.0146
     11 C          61.6373   88.4343   10.2981 C.ar    1  UNL1        0.0499
     12 C          64.1006   90.9682   13.0840 C.ar    1  UNL1        0.0192
     13 C          64.0844   90.6945   14.5587 C.ar    1  UNL1        0.0988
     14 N          64.9055   91.5392   15.4874 N.ar    1  UNL1       -0.2423
     15 C          65.7429   92.6574   14.9413 C.ar    1  UNL1        0.0988
     16 C          65.7592   92.9311   13.4665 C.ar    1  UNL1        0.0192
     17 C          66.5966   94.0493   12.9205 C.ar    1  UNL1        0.0015
     18 C          66.6128   94.3230   11.4458 C.ar    1  UNL1        0.0000
     19 C          65.7917   93.4784   10.5171 C.ar    1  UNL1        0.0000
     20 C          64.9543   92.3601   11.0632 C.ar    1  UNL1        0.0001
     21 C          64.9381   92.0865   12.5379 C.ar    1  UNL1        0.0030
     22 C          60.2245   85.3350    7.0232 C.3     1  UNL1        0.0101
     23 C          59.3744   86.3650    7.7062 C.3     1  UNL1        0.0856
@<TRIPOS>BOND
     1    22    23    1
     2    23     1    1
     3     1     2    2
     4     1     3   am
     5     3     4    1
     6     4     5    1
     7     5     6    1
     8     6     7   ar
     9     7     8   ar
    10     8    12    1
    11    12    13   ar
    12    13    14   ar
    13    14    15   ar
    14    15    16   ar
    15    16    17   ar
    16    17    18   ar
    17    18    19   ar
    18    19    20   ar
    19    20    21   ar
    20     8     9   ar
    21     9    10   ar
    22    10    11   ar
    23    11     3    1
    24    11     6   ar
    25    21    12   ar
    26    21    16   ar
@<TRIPOS>MOLECULE
*****
 23 26 0 0 0
SMALL
GASTEIGER

@<TRIPOS>ATOM
      1 C          66.0372   93.4593   11.3842 C.2     1  UNL1        0.2293
      2 O          66.9848   93.7221   12.5169 O.2     1  UNL1       -0.2745
      3 N          65.0325   92.3505   11.4887 N.am    1  UNL1       -0.2586
      4 C          64.0260   91.9712   10.4431 C.3     1  UNL1        0.1029
      5 C          63.2293   90.8126   10.9653 C.3     1  UNL1        0.0495
      6 C          63.7434   90.4757   12.3336 C.ar    1  UNL1       -0.0068
      7 C          63.3407   89.4263   13.3268 C.ar    1  UNL1       -0.0029
      8 C          64.0523   89.3273   14.6435 C.ar    1  UNL1        0.0013
      9 C          65.1668   90.2779   14.9670 C.ar    1  UNL1        0.0013
     10 C          65.5695   91.3273   13.9738 C.ar    1  UNL1        0.0146
     11 C          64.8577   91.4262   12.6570 C.ar    1  UNL1        0.0499
     12 C          63.6496   88.2779   15.6368 C.ar    1  UNL1        0.0192
     13 C          63.1412   88.6810   16.9891 C.ar    1  UNL1        0.0988
     14 N          62.7385   87.6315   17.9824 N.ar    1  UNL1       -0.2423
     15 C          62.8442   86.1790   17.6232 C.ar    1  UNL1        0.0988
     16 C          63.3527   85.7759   16.2708 C.ar    1  UNL1        0.0192
     17 C          63.4584   84.3234   15.9117 C.ar    1  UNL1        0.0015
     18 C          63.9669   83.9204   14.5593 C.ar    1  UNL1        0.0000
     19 C          64.3696   84.9698   13.5660 C.ar    1  UNL1        0.0000
     20 C          64.2639   86.4223   13.9252 C.ar    1  UNL1        0.0001
     21 C          63.7554   86.8253   15.2776 C.ar    1  UNL1        0.0030
     22 C          67.4050   94.5327    9.4536 C.3     1  UNL1        0.0101
     23 C          66.0944   94.3055   10.1469 C.3     1  UNL1        0.0856
@<TRIPOS>BOND
     1    22    23    1
     2    23     1    1
     3     1     2    2
     4     1     3   am
     5     3     4    1
     6     4     5    1
     7     5     6    1
     8     6     7   ar
     9     7     8   ar
    10     8    12    1
    11    12    13   ar
    12    13    14   ar
    13    14    15   ar
    14    15    16   ar
    15    16    17   ar
    16    17    18   ar
    17    18    19   ar
    18    19    20   ar
    19    20    21   ar
    20     8     9   ar
    21     9    10   ar
    22    10    11   ar
    23    11     3    1
    24    11     6   ar
    25    21    12   ar
    26    21    16   ar
@<TRIPOS>MOLECULE
*****
 23 26 0 0 0
SMALL
GASTEIGER

@<TRIPOS>ATOM
      1 C          66.5082   92.8820   15.0273 C.2     1  UNL1        0.2293
      2 O          65.8751   92.0044   16.0660 O.2     1  UNL1       -0.2745
      3 N          66.0656   92.7903   13.5970 N.am    1  UNL1       -0.2586
      4 C          66.6036   93.5991   12.4540 C.3     1  UNL1        0.1029
      5 C          65.8777   93.1824   11.2092 C.3     1  UNL1        0.0495
      6 C          64.8912   92.1161   11.5829 C.ar    1  UNL1       -0.0068
      7 C          63.9021   91.3344   10.7700 C.ar    1  UNL1       -0.0029
      8 C          63.0291   90.3105   11.4328 C.ar    1  UNL1        0.0013
      9 C          63.1452   90.0682   12.9086 C.ar    1  UNL1        0.0013
     10 C          64.1343   90.8498   13.7215 C.ar    1  UNL1        0.0146
     11 C          65.0073   91.8738   13.0586 C.ar    1  UNL1        0.0499
     12 C          62.0400   89.5289   10.6200 C.ar    1  UNL1        0.0192
     13 C          61.0954   90.2426    9.6991 C.ar    1  UNL1        0.0988
     14 N          60.1063   89.4610    8.8862 N.ar    1  UNL1       -0.2423
     15 C          60.0619   87.9656    8.9942 C.ar    1  UNL1        0.0988
     16 C          61.0066   87.2517    9.9152 C.ar    1  UNL1        0.0192
     17 C          60.9621   85.7563   10.0232 C.ar    1  UNL1        0.0015
     18 C          61.9068   85.0425   10.9441 C.ar    1  UNL1        0.0000
     19 C          62.8959   85.8242   11.7569 C.ar    1  UNL1        0.0000
     20 C          62.9403   87.3196   11.6489 C.ar    1  UNL1        0.0001
     21 C          61.9956   88.0334   10.7280 C.ar    1  UNL1        0.0030
     22 C          68.9689   93.3560   15.7129 C.3     1  UNL1        0.0101
     23 C          67.5839   93.8513   15.4187 C.3     1  UNL1        0.0856
@<TRIPOS>BOND
     1    22    23    1
     2    23     1    1
     3     1     2    2
     4     1     3   am
     5     3     4    1
     6     4     5    1
     7     5     6    1
     8     6     7   ar
     9     7     8   ar
    10     8    12    1
    11    12    13   ar
    12    13    14   ar
    13    14    15   ar
    14    15    16   ar
    15    16    17   ar
    16    17    18   ar
    17    18    19   ar
    18    19    20   ar
    19    20    21   ar
    20     8     9   ar
    21     9    10   ar
    22    10    11   ar
    23    11     3    1
    24    11     6   ar
    25    21    12   ar
    26    21    16   ar
@<TRIPOS>MOLECULE
*****
 23 26 0 0 0
SMALL
GASTEIGER

@<TRIPOS>ATOM
      1 C          61.4551   86.2772    8.9435 C.2     1  UNL1        0.2293
      2 O          62.3526   85.2627    9.5877 O.2     1  UNL1       -0.2745
      3 N          61.3221   87.6472    9.5397 N.am    1  UNL1       -0.2586
      4 C          60.4676   88.7603    9.0098 C.3     1  UNL1        0.1029
      5 C          60.6377   89.9456    9.9131 C.3     1  UNL1        0.0495
      6 C          61.5974   89.5651   11.0013 C.ar    1  UNL1       -0.0068
      7 C          62.1407   90.3286   12.1725 C.ar    1  UNL1       -0.0029
      8 C          63.1071   89.6717   13.1130 C.ar    1  UNL1        0.0013
      9 C          63.5301   88.2511   12.8822 C.ar    1  UNL1        0.0013
     10 C          62.9868   87.4876   11.7110 C.ar    1  UNL1        0.0146
     11 C          62.0204   88.1447   10.7705 C.ar    1  UNL1        0.0499
     12 C          63.6504   90.4352   14.2843 C.ar    1  UNL1        0.0192
     13 C          63.0447   90.2532   15.6444 C.ar    1  UNL1        0.0988
     14 N          63.5881   91.0167   16.8156 N.ar    1  UNL1       -0.2423
     15 C          64.7372   91.9622   16.6268 C.ar    1  UNL1        0.0988
     16 C          65.3430   92.1441   15.2666 C.ar    1  UNL1        0.0192
     17 C          66.4920   93.0896   15.0777 C.ar    1  UNL1        0.0015
     18 C          67.0977   93.2715   13.7176 C.ar    1  UNL1        0.0000
     19 C          66.5544   92.5080   12.5464 C.ar    1  UNL1        0.0000
     20 C          65.4053   91.5626   12.7352 C.ar    1  UNL1        0.0001
     21 C          64.7996   91.3806   14.0953 C.ar    1  UNL1        0.0030
     22 C          61.2791   84.9675    6.7066 C.3     1  UNL1        0.0101
     23 C          60.6904   85.9218    7.7029 C.3     1  UNL1        0.0856
@<TRIPOS>BOND
     1    22    23    1
     2    23     1    1
     3     1     2    2
     4     1     3   am
     5     3     4    1
     6     4     5    1
     7     5     6    1
     8     6     7   ar
     9     7     8   ar
    10     8    12    1
    11    12    13   ar
    12    13    14   ar
    13    14    15   ar
    14    15    16   ar
    15    16    17   ar
    16    17    18   ar
    17    18    19   ar
    18    19    20   ar
    19    20    21   ar
    20     8     9   ar
    21     9    10   ar
    22    10    11   ar
    23    11     3    1
    24    11     6   ar
    25    21    12   ar
    26    21    16   ar
@<TRIPOS>MOLECULE
*****
 23 26 0 0 0
SMALL
GASTEIGER

@<TRIPOS>ATOM
      1 C          60.0428   88.0960    8.5802 C.2     1  UNL1        0.2293
      2 O          59.9539   89.3751    7.8018 O.2     1  UNL1       -0.2745
      3 N          60.9761   87.9931    9.7499 N.am    1  UNL1       -0.2586
      4 C          61.1718   86.7857   10.6182 C.3     1  UNL1        0.1029
      5 C          62.1943   87.1259   11.6616 C.3     1  UNL1        0.0495
      6 C          62.6306   88.5435   11.4382 C.ar    1  UNL1       -0.0068
      7 C          63.6161   89.4156   12.1580 C.ar    1  UNL1       -0.0029
      8 C          63.8488   90.8237   11.6963 C.ar    1  UNL1        0.0013
      9 C          63.0959   91.3597   10.5148 C.ar    1  UNL1        0.0013
     10 C          62.1104   90.4876    9.7950 C.ar    1  UNL1        0.0146
     11 C          61.8777   89.0794   10.2567 C.ar    1  UNL1        0.0499
     12 C          64.8344   91.6958   12.4161 C.ar    1  UNL1        0.0192
     13 C          65.8310   92.5022   11.6374 C.ar    1  UNL1        0.0988
     14 N          66.8165   93.3743   12.3572 N.ar    1  UNL1       -0.2423
     15 C          66.8054   93.4400   13.8557 C.ar    1  UNL1        0.0988
     16 C          65.8088   92.6336   14.6345 C.ar    1  UNL1        0.0192
     17 C          65.7977   92.6994   16.1330 C.ar    1  UNL1        0.0015
     18 C          64.8010   91.8930   16.9117 C.ar    1  UNL1        0.0000
     19 C          63.8155   91.0209   16.1919 C.ar    1  UNL1        0.0000
     20 C          63.8266   90.9551   14.6934 C.ar    1  UNL1        0.0001
     21 C          64.8232   91.7615   13.9147 C.ar    1  UNL1        0.0030
     22 C          59.8009   85.7914    7.4054 C.3     1  UNL1        0.0101
     23 C          59.1983   86.9197    8.1888 C.3     1  UNL1        0.0856
@<TRIPOS>BOND
     1    22    23    1
     2    23     1    1
     3     1     2    2
     4     1     3   am
     5     3     4    1
     6     4     5    1
     7     5     6    1
     8     6     7   ar
     9     7     8   ar
    10     8    12    1
    11    12    13   ar
    12    13    14   ar
    13    14    15   ar
    14    15    16   ar
    15    16    17   ar
    16    17    18   ar
    17    18    19   ar
    18    19    20   ar
    19    20    21   ar
    20     8     9   ar
    21     9    10   ar
    22    10    11   ar
    23    11     3    1
    24    11     6   ar
    25    21    12   ar
    26    21    16   ar
@<TRIPOS>MOLECULE
*****
 23 26 0 0 0
SMALL
GASTEIGER

@<TRIPOS>ATOM
      1 C          59.4473   88.2814    7.5172 C.2     1  UNL1        0.2293
      2 O          59.1900   86.8484    7.1566 O.2     1  UNL1       -0.2745
      3 N          60.3006   88.6144    8.7050 N.am    1  UNL1       -0.2586
      4 C          60.6440   89.9934    9.1852 C.3     1  UNL1        0.1029
      5 C          61.5160   89.8581   10.3981 C.3     1  UNL1        0.0495
      6 C          61.7117   88.3955   10.6676 C.ar    1  UNL1       -0.0068
      7 C          62.4768   87.6643   11.7306 C.ar    1  UNL1       -0.0029
      8 C          62.4907   86.1645   11.7472 C.ar    1  UNL1        0.0013
      9 C          61.7396   85.3958   10.7007 C.ar    1  UNL1        0.0013
     10 C          60.9745   86.1270    9.6377 C.ar    1  UNL1        0.0146
     11 C          60.9605   87.6269    9.6212 C.ar    1  UNL1        0.0499
     12 C          63.2558   85.4333   12.8101 C.ar    1  UNL1        0.0192
     13 C          64.0092   86.2019   13.8549 C.ar    1  UNL1        0.0988
     14 N          64.7743   85.4707   14.9179 N.ar    1  UNL1       -0.2423
     15 C          64.7860   83.9709   14.9361 C.ar    1  UNL1        0.0988
     16 C          64.0326   83.2022   13.8913 C.ar    1  UNL1        0.0192
     17 C          64.0444   81.7024   13.9095 C.ar    1  UNL1        0.0015
     18 C          63.2910   80.9338   12.8647 C.ar    1  UNL1        0.0000
     19 C          62.5259   81.6650   11.8017 C.ar    1  UNL1        0.0000
     20 C          62.5142   83.1648   11.7835 C.ar    1  UNL1        0.0001
     21 C          63.2675   83.9334   12.8283 C.ar    1  UNL1        0.0030
     22 C          59.7109   90.1463    5.7277 C.3     1  UNL1        0.0101
     23 C          58.8512   89.3816    6.6900 C.3     1  UNL1        0.0856
@<TRIPOS>BOND
     1    22    23    1
     2    23     1    1
     3     1     2    2
     4     1     3   am
     5     3     4    1
     6     4     5    1
     7     5     6    1
     8     6     7   ar
     9     7     8   ar
    10     8    12    1
    11    12    13   ar
    12    13    14   ar
    13    14    15   ar
    14    15    16   ar
    15    16    17   ar
    16    17    18   ar
    17    18    19   ar
    18    19    20   ar
    19    20    21   ar
    20     8     9   ar
    21     9    10   ar
    22    10    11   ar
    23    11     3    1
    24    11     6   ar
    25    21    12   ar
    26    21    16   ar
@<TRIPOS>MOLECULE
*****
 23 26 0 0 0
SMALL
GASTEIGER

@<TRIPOS>ATOM
      1 C          61.1032   87.5457    9.2746 C.2     1  UNL1        0.2293
      2 O          60.7134   88.9338    8.8612 O.2     1  UNL1       -0.2745
      3 N          61.9198   87.3339   10.5149 N.am    1  UNL1       -0.2586
      4 C          62.3824   86.0114   11.0508 C.3     1  UNL1        0.1029
      5 C          63.1656   86.2676   12.3042 C.3     1  UNL1        0.0495
      6 C          63.1870   87.7483   12.5430 C.ar    1  UNL1       -0.0068
      7 C          63.8081   88.5817   13.6245 C.ar    1  UNL1       -0.0029
      8 C          63.6592   90.0741   13.6001 C.ar    1  UNL1        0.0013
      9 C          62.8892   90.7331   12.4943 C.ar    1  UNL1        0.0013
     10 C          62.2681   89.8997   11.4128 C.ar    1  UNL1        0.0146
     11 C          62.4170   88.4072   11.4371 C.ar    1  UNL1        0.0499
     12 C          64.2804   90.9075   14.6816 C.ar    1  UNL1        0.0192
     13 C          63.5485   91.1280   15.9722 C.ar    1  UNL1        0.0988
     14 N          64.1696   91.9615   17.0537 N.ar    1  UNL1       -0.2423
     15 C          65.5226   92.5743   16.8446 C.ar    1  UNL1        0.0988
     16 C          66.2545   92.3538   15.5540 C.ar    1  UNL1        0.0192
     17 C          67.6075   92.9667   15.3449 C.ar    1  UNL1        0.0015
     18 C          68.3394   92.7461   14.0543 C.ar    1  UNL1        0.0000
     19 C          67.7183   91.9127   12.9728 C.ar    1  UNL1        0.0000
     20 C          66.3653   91.2998   13.1819 C.ar    1  UNL1        0.0001
     21 C          65.6334   91.5204   14.4725 C.ar    1  UNL1        0.0030
     22 C          59.4546   86.4641    7.5828 C.3     1  UNL1        0.0101
     23 C          60.6765   86.3691    8.4477 C.3     1  UNL1        0.0856
@<TRIPOS>BOND
     1    22    23    1
     2    23     1    1
     3     1     2    2
     4     1     3   am
     5     3     4    1
     6     4     5    1
     7     5     6    1
     8     6     7   ar
     9     7     8   ar
    10     8    12    1
    11    12    13   ar
    12    13    14   ar
    13    14    15   ar
    14    15    16   ar
    15    16    17   ar
    16    17    18   ar
    17    18    19   ar
    18    19    20   ar
    19    20    21   ar
    20     8     9   ar
    21     9    10   ar
    22    10    11   ar
    23    11     3    1
    24    11     6   ar
    25    21    12   ar
    26    21    16   ar
@<TRIPOS>MOLECULE
*****
 23 26 0 0 0
SMALL
GASTEIGER

@<TRIPOS>ATOM
      1 C          62.9348   84.7155   11.2004 C.2     1  UNL1        0.2293
      2 O          62.4036   85.7413   10.2436 O.2     1  UNL1       -0.2745
      3 N          63.5138   85.1453   12.5157 N.am    1  UNL1       -0.2586
      4 C          64.0799   84.2387   13.5682 C.3     1  UNL1        0.1029
      5 C          64.5444   85.0902   14.7123 C.3     1  UNL1        0.0495
      6 C          64.2654   86.5230   14.3670 C.ar    1  UNL1       -0.0068
      7 C          64.5091   87.8012   15.1133 C.ar    1  UNL1       -0.0029
      8 C          64.1158   89.1133   14.5021 C.ar    1  UNL1        0.0013
      9 C          63.4788   89.1473   13.1444 C.ar    1  UNL1        0.0013
     10 C          63.2352   87.8691   12.3981 C.ar    1  UNL1        0.0146
     11 C          63.6285   86.5570   13.0094 C.ar    1  UNL1        0.0499
     12 C          64.3594   90.3914   15.2484 C.ar    1  UNL1        0.0192
     13 C          63.3698   90.8622   16.2725 C.ar    1  UNL1        0.0988
     14 N          63.6134   92.1403   17.0189 N.ar    1  UNL1       -0.2423
     15 C          64.8467   92.9476   16.7411 C.ar    1  UNL1        0.0988
     16 C          65.8364   92.4768   15.7170 C.ar    1  UNL1        0.0192
     17 C          67.0697   93.2841   15.4392 C.ar    1  UNL1        0.0015
     18 C          68.0594   92.8133   14.4151 C.ar    1  UNL1        0.0000
     19 C          67.8158   91.5352   13.6687 C.ar    1  UNL1        0.0000
     20 C          66.5825   90.7279   13.9465 C.ar    1  UNL1        0.0001
     21 C          65.5928   91.1987   14.9706 C.ar    1  UNL1        0.0030
     22 C          64.1132   82.5770   10.3126 C.3     1  UNL1        0.0101
     23 C          62.8869   83.2597   10.8419 C.3     1  UNL1        0.0856
@<TRIPOS>BOND
     1    22    23    1
     2    23     1    1
     3     1     2    2
     4     1     3   am
     5     3     4    1
     6     4     5    1
     7     5     6    1
     8     6     7   ar
     9     7     8   ar
    10     8    12    1
    11    12    13   ar
    12    13    14   ar
    13    14    15   ar
    14    15    16   ar
    15    16    17   ar
    16    17    18   ar
    17    18    19   ar
    18    19    20   ar
    19    20    21   ar
    20     8     9   ar
    21     9    10   ar
    22    10    11   ar
    23    11     3    1
    24    11     6   ar
    25    21    12   ar
    26    21    16   ar
