@<TRIPOS>MOLECULE
*****
 19 21 0 0 0
SMALL
GASTEIGER

@<TRIPOS>ATOM
      1 C          61.7612   87.4253   10.1382 C.3     1  UNL1        0.0065
      2 C          62.3606   86.7794   11.3521 C.3     1  UNL1        0.0427
      3 C          62.2413   85.2972   11.5492 C.3     1  UNL1        0.1028
      4 N          62.8407   84.6514   12.7631 N.am    1  UNL1       -0.2534
      5 C          63.5594   85.4877   13.7799 C.2     1  UNL1        0.2525
      6 O          64.1588   84.8419   14.9939 O.2     1  UNL1       -0.2696
      7 C          63.6787   86.9700   13.5829 C.ar    1  UNL1        0.0500
      8 C          64.3974   87.8063   14.5997 C.ar    1  UNL1        0.0051
      9 C          64.5167   89.2885   14.4026 C.ar    1  UNL1        0.0115
     10 C          63.9173   89.9343   13.1887 C.ar    1  UNL1        0.0574
     11 CL         64.0366   91.4166   12.9917 Cl      1  UNL1       -0.0823
     12 C          63.1986   89.0980   12.1719 C.ar    1  UNL1        0.0073
     13 C          63.0793   87.6158   12.3690 C.ar    1  UNL1       -0.0156
     14 C          62.7214   83.1691   12.9602 C.ar    1  UNL1        0.0733
     15 C          63.0731   82.2332   11.8420 C.ar    1  UNL1        0.0181
     16 C          62.9538   80.7510   12.0391 C.ar    1  UNL1        0.0220
     17 C          62.4828   80.2048   13.3543 C.ar    1  UNL1        0.0990
     18 N          62.1311   81.1408   14.4725 N.ar    1  UNL1       -0.2410
     19 C          62.2504   82.6229   14.2754 C.ar    1  UNL1        0.1137
@<TRIPOS>BOND
     1     1     2    1
     2     2     3    1
     3     3     4    1
     4     4    14    1
     5    14    15   ar
     6    15    16   ar
     7    16    17   ar
     8    17    18   ar
     9    18    19   ar
    10     4     5   am
    11     5     6    2
    12     5     7    1
    13     7     8   ar
    14     8     9   ar
    15     9    10   ar
    16    10    11    1
    17    10    12   ar
    18    12    13   ar
    19    13     2    1
    20    19    14   ar
    21    13     7   ar
@<TRIPOS>MOLECULE
*****
 19 21 0 0 0
SMALL
GASTEIGER

@<TRIPOS>ATOM
      1 C          66.1239   93.3945   10.4446 C.3     1  UNL1        0.0065
      2 C          65.2813   92.4717   11.2743 C.3     1  UNL1        0.0427
      3 C          64.1890   91.6706   10.6300 C.3     1  UNL1        0.1028
      4 N          63.3464   90.7478   11.4597 N.am    1  UNL1       -0.2534
      5 C          63.5960   90.6261   12.9338 C.2     1  UNL1        0.2525
      6 O          62.7534   89.7034   13.7635 O.2     1  UNL1       -0.2696
      7 C          64.6884   91.4273   13.5781 C.ar    1  UNL1        0.0500
      8 C          64.9380   91.3056   15.0522 C.ar    1  UNL1        0.0051
      9 C          66.0303   92.1067   15.6965 C.ar    1  UNL1        0.0115
     10 C          66.8729   93.0294   14.8667 C.ar    1  UNL1        0.0574
     11 CL         67.9652   93.8305   15.5111 Cl      1  UNL1       -0.0823
     12 C          66.6232   93.1511   13.3927 C.ar    1  UNL1        0.0073
     13 C          65.5310   92.3500   12.7484 C.ar    1  UNL1       -0.0156
     14 C          62.2541   89.9467   10.8154 C.ar    1  UNL1        0.0733
     15 C          62.5598   88.6042   10.2202 C.ar    1  UNL1        0.0181
     16 C          61.4675   87.8032    9.5759 C.ar    1  UNL1        0.0220
     17 C          60.0695   88.3447    9.5267 C.ar    1  UNL1        0.0990
     18 N          59.7638   89.6871   10.1218 N.ar    1  UNL1       -0.2410
     19 C          60.8561   90.4882   10.7662 C.ar    1  UNL1        0.1137
@<TRIPOS>BOND
     1     1     2    1
     2     2     3    1
     3     3     4    1
     4     4    14    1
     5    14    15   ar
     6    15    16   ar
     7    16    17   ar
     8    17    18   ar
     9    18    19   ar
    10     4     5   am
    11     5     6    2
    12     5     7    1
    13     7     8   ar
    14     8     9   ar
    15     9    10   ar
    16    10    11    1
    17    10    12   ar
    18    12    13   ar
    19    13     2    1
    20    19    14   ar
    21    13     7   ar
@<TRIPOS>MOLECULE
*****
 19 21 0 0 0
SMALL
GASTEIGER

@<TRIPOS>ATOM
      1 C          62.8913   90.8179   10.0633 C.3     1  UNL1        0.0065
      2 C          63.6148   90.8961   11.3750 C.3     1  UNL1        0.0427
      3 C          63.3639   89.8626   12.4327 C.3     1  UNL1        0.1028
      4 N          64.0873   89.9408   13.7443 N.am    1  UNL1       -0.2534
      5 C          65.0617   91.0525   13.9983 C.2     1  UNL1        0.2525
      6 O          65.7852   91.1307   15.3100 O.2     1  UNL1       -0.2696
      7 C          65.3127   92.0861   12.9405 C.ar    1  UNL1        0.0500
      8 C          66.2871   93.1978   13.1945 C.ar    1  UNL1        0.0051
      9 C          66.5381   94.2314   12.1368 C.ar    1  UNL1        0.0115
     10 C          65.8146   94.1532   10.8251 C.ar    1  UNL1        0.0574
     11 CL         66.0656   95.1868    9.7674 Cl      1  UNL1       -0.0823
     12 C          64.8402   93.0414   10.5712 C.ar    1  UNL1        0.0073
     13 C          64.5893   92.0079   11.6289 C.ar    1  UNL1       -0.0156
     14 C          63.8363   88.9072   14.8021 C.ar    1  UNL1        0.0733
     15 C          63.2294   89.3084   16.1138 C.ar    1  UNL1        0.0181
     16 C          62.9784   88.2749   17.1714 C.ar    1  UNL1        0.0220
     17 C          63.3344   86.8400   16.9174 C.ar    1  UNL1        0.0990
     18 N          63.9414   86.4388   15.6057 N.ar    1  UNL1       -0.2410
     19 C          64.1924   87.4724   14.5481 C.ar    1  UNL1        0.1137
@<TRIPOS>BOND
     1     1     2    1
     2     2     3    1
     3     3     4    1
     4     4    14    1
     5    14    15   ar
     6    15    16   ar
     7    16    17   ar
     8    17    18   ar
     9    18    19   ar
    10     4     5   am
    11     5     6    2
    12     5     7    1
    13     7     8   ar
    14     8     9   ar
    15     9    10   ar
    16    10    11    1
    17    10    12   ar
    18    12    13   ar
    19    13     2    1
    20    19    14   ar
    21    13     7   ar
@<TRIPOS>MOLECULE
*****
 19 21 0 0 0
SMALL
GASTEIGER

@<TRIPOS>ATOM
      1 C          62.6866   90.0951   11.0946 C.3     1  UNL1        0.0065
      2 C          63.7104   91.0449   11.6420 C.3     1  UNL1        0.0427
      3 C          64.4097   92.0040   10.7249 C.3     1  UNL1        0.1028
      4 N          65.4335   92.9539   11.2723 N.am    1  UNL1       -0.2534
      5 C          65.7580   92.9446   12.7367 C.2     1  UNL1        0.2525
      6 O          66.7818   93.8945   13.2841 O.2     1  UNL1       -0.2696
      7 C          65.0586   91.9855   13.6539 C.ar    1  UNL1        0.0500
      8 C          65.3831   91.9762   15.1183 C.ar    1  UNL1        0.0051
      9 C          64.6838   91.0171   16.0353 C.ar    1  UNL1        0.0115
     10 C          63.6600   90.0673   15.4880 C.ar    1  UNL1        0.0574
     11 CL         62.9606   89.1081   16.4051 Cl      1  UNL1       -0.0823
     12 C          63.3355   90.0765   14.0235 C.ar    1  UNL1        0.0073
     13 C          64.0348   91.0356   13.1065 C.ar    1  UNL1       -0.0156
     14 C          66.1328   93.9130   10.3552 C.ar    1  UNL1        0.0733
     15 C          67.2937   93.4477    9.5270 C.ar    1  UNL1        0.0181
     16 C          67.9929   94.4068    8.6100 C.ar    1  UNL1        0.0220
     17 C          67.5314   95.8313    8.5210 C.ar    1  UNL1        0.0990
     18 N          66.3705   96.2966    9.3492 N.ar    1  UNL1       -0.2410
     19 C          65.6713   95.3375   10.2663 C.ar    1  UNL1        0.1137
@<TRIPOS>BOND
     1     1     2    1
     2     2     3    1
     3     3     4    1
     4     4    14    1
     5    14    15   ar
     6    15    16   ar
     7    16    17   ar
     8    17    18   ar
     9    18    19   ar
    10     4     5   am
    11     5     6    2
    12     5     7    1
    13     7     8   ar
    14     8     9   ar
    15     9    10   ar
    16    10    11    1
    17    10    12   ar
    18    12    13   ar
    19    13     2    1
    20    19    14   ar
    21    13     7   ar
@<TRIPOS>MOLECULE
*****
 19 21 0 0 0
SMALL
GASTEIGER

@<TRIPOS>ATOM
      1 C          67.0937   93.2980   15.1654 C.3     1  UNL1        0.0065
      2 C          66.1596   92.3607   14.4591 C.3     1  UNL1        0.0427
      3 C          65.6292   91.1521   15.1718 C.3     1  UNL1        0.1028
      4 N          64.6950   90.2147   14.4655 N.am    1  UNL1       -0.2534
      5 C          64.2913   90.4860   13.0466 C.2     1  UNL1        0.2525
      6 O          63.3572   89.5487   12.3403 O.2     1  UNL1       -0.2696
      7 C          64.8217   91.6947   12.3339 C.ar    1  UNL1        0.0500
      8 C          64.4180   91.9660   10.9149 C.ar    1  UNL1        0.0051
      9 C          64.9484   93.1746   10.2023 C.ar    1  UNL1        0.0115
     10 C          65.8826   94.1119   10.9086 C.ar    1  UNL1        0.0574
     11 CL         66.4130   95.3205   10.1959 Cl      1  UNL1       -0.0823
     12 C          66.2863   93.8406   12.3275 C.ar    1  UNL1        0.0073
     13 C          65.7559   92.6320   13.0401 C.ar    1  UNL1       -0.0156
     14 C          64.1646   89.0061   15.1782 C.ar    1  UNL1        0.0733
     15 C          64.5571   87.6328   14.7200 C.ar    1  UNL1        0.0181
     16 C          64.0267   86.4243   15.4327 C.ar    1  UNL1        0.0220
     17 C          63.1038   86.5890   16.6036 C.ar    1  UNL1        0.0990
     18 N          62.7113   87.9622   17.0618 N.ar    1  UNL1       -0.2410
     19 C          63.2417   89.1708   16.3491 C.ar    1  UNL1        0.1137
@<TRIPOS>BOND
     1     1     2    1
     2     2     3    1
     3     3     4    1
     4     4    14    1
     5    14    15   ar
     6    15    16   ar
     7    16    17   ar
     8    17    18   ar
     9    18    19   ar
    10     4     5   am
    11     5     6    2
    12     5     7    1
    13     7     8   ar
    14     8     9   ar
    15     9    10   ar
    16    10    11    1
    17    10    12   ar
    18    12    13   ar
    19    13     2    1
    20    19    14   ar
    21    13     7   ar
@<TRIPOS>MOLECULE
*****
 19 21 0 0 0
SMALL
GASTEIGER

@<TRIPOS>ATOM
      1 C          63.8659   92.3568   10.3834 C.3     1  UNL1        0.0065
      2 C          63.4847   90.9779   10.8342 C.3     1  UNL1        0.0427
      3 C          62.6967   90.0825    9.9247 C.3     1  UNL1        0.1028
      4 N          62.3155   88.7036   10.3756 N.am    1  UNL1       -0.2534
      5 C          62.7222   88.2201   11.7360 C.2     1  UNL1        0.2525
      6 O          62.3410   86.8412   12.1869 O.2     1  UNL1       -0.2696
      7 C          63.5102   89.1156   12.6457 C.ar    1  UNL1        0.0500
      8 C          63.9169   88.6321   14.0061 C.ar    1  UNL1        0.0051
      9 C          64.7048   89.5275   14.9156 C.ar    1  UNL1        0.0115
     10 C          65.0861   90.9064   14.4647 C.ar    1  UNL1        0.0574
     11 CL         65.8741   91.8019   15.3743 Cl      1  UNL1       -0.0823
     12 C          64.6794   91.3899   13.1043 C.ar    1  UNL1        0.0073
     13 C          63.8914   90.4944   12.1948 C.ar    1  UNL1       -0.0156
     14 C          61.5275   87.8081    9.4660 C.ar    1  UNL1        0.0733
     15 C          62.1746   86.5986    8.8592 C.ar    1  UNL1        0.0181
     16 C          61.3866   85.7032    7.9497 C.ar    1  UNL1        0.0220
     17 C          59.9515   86.0174    7.6469 C.ar    1  UNL1        0.0990
     18 N          59.3043   87.2269    8.2537 N.ar    1  UNL1       -0.2410
     19 C          60.0923   88.1223    9.1632 C.ar    1  UNL1        0.1137
@<TRIPOS>BOND
     1     1     2    1
     2     2     3    1
     3     3     4    1
     4     4    14    1
     5    14    15   ar
     6    15    16   ar
     7    16    17   ar
     8    17    18   ar
     9    18    19   ar
    10     4     5   am
    11     5     6    2
    12     5     7    1
    13     7     8   ar
    14     8     9   ar
    15     9    10   ar
    16    10    11    1
    17    10    12   ar
    18    12    13   ar
    19    13     2    1
    20    19    14   ar
    21    13     7   ar
@<TRIPOS>MOLECULE
*****
 19 21 0 0 0
SMALL
GASTEIGER

@<TRIPOS>ATOM
      1 C          62.5184   91.1116    9.6813 C.3     1  UNL1        0.0065
      2 C          62.9886   90.3819   10.9046 C.3     1  UNL1        0.0427
      3 C          63.7402   91.1175   11.9741 C.3     1  UNL1        0.1028
      4 N          64.2104   90.3878   13.1974 N.am    1  UNL1       -0.2534
      5 C          63.9292   88.9225   13.3511 C.2     1  UNL1        0.2525
      6 O          64.3995   88.1928   14.5743 O.2     1  UNL1       -0.2696
      7 C          63.1776   88.1868   12.2815 C.ar    1  UNL1        0.0500
      8 C          62.8964   86.7214   12.4352 C.ar    1  UNL1        0.0051
      9 C          62.1448   85.9858   11.3656 C.ar    1  UNL1        0.0115
     10 C          61.6746   86.7155   10.1424 C.ar    1  UNL1        0.0574
     11 CL         60.9230   85.9798    9.0728 Cl      1  UNL1       -0.0823
     12 C          61.9558   88.1808    9.9887 C.ar    1  UNL1        0.0073
     13 C          62.7073   88.9165   11.0582 C.ar    1  UNL1       -0.0156
     14 C          64.9620   91.1235   14.2670 C.ar    1  UNL1        0.0733
     15 C          66.4250   91.4069   14.0959 C.ar    1  UNL1        0.0181
     16 C          67.1765   92.1425   15.1655 C.ar    1  UNL1        0.0220
     17 C          66.4650   92.5948   16.4061 C.ar    1  UNL1        0.0990
     18 N          65.0020   92.3115   16.5772 N.ar    1  UNL1       -0.2410
     19 C          64.2505   91.5758   15.5076 C.ar    1  UNL1        0.1137
@<TRIPOS>BOND
     1     1     2    1
     2     2     3    1
     3     3     4    1
     4     4    14    1
     5    14    15   ar
     6    15    16   ar
     7    16    17   ar
     8    17    18   ar
     9    18    19   ar
    10     4     5   am
    11     5     6    2
    12     5     7    1
    13     7     8   ar
    14     8     9   ar
    15     9    10   ar
    16    10    11    1
    17    10    12   ar
    18    12    13   ar
    19    13     2    1
    20    19    14   ar
    21    13     7   ar
@<TRIPOS>MOLECULE
*****
 19 21 0 0 0
SMALL
GASTEIGER

@<TRIPOS>ATOM
      1 C          66.9593   92.6858   15.1718 C.3     1  UNL1        0.0065
      2 C          65.9446   91.7707   14.5528 C.3     1  UNL1        0.0427
      3 C          65.4305   90.5905   15.3227 C.3     1  UNL1        0.1028
      4 N          64.4158   89.6755   14.7037 N.am    1  UNL1       -0.2534
      5 C          63.9152   89.9407   13.3148 C.2     1  UNL1        0.2525
      6 O          62.9005   89.0257   12.6959 O.2     1  UNL1       -0.2696
      7 C          64.4292   91.1210   12.5449 C.ar    1  UNL1        0.0500
      8 C          63.9285   91.3862   11.1561 C.ar    1  UNL1        0.0051
      9 C          64.4426   92.5665   10.3862 C.ar    1  UNL1        0.0115
     10 C          65.4573   93.4815   11.0052 C.ar    1  UNL1        0.0574
     11 CL         65.9713   94.6618   10.2352 Cl      1  UNL1       -0.0823
     12 C          65.9579   93.2163   12.3940 C.ar    1  UNL1        0.0073
     13 C          65.4439   92.0360   13.1639 C.ar    1  UNL1       -0.0156
     14 C          63.9018   88.4952   15.4736 C.ar    1  UNL1        0.0733
     15 C          63.1836   88.7031   16.7740 C.ar    1  UNL1        0.0181
     16 C          62.6696   87.5228   17.5439 C.ar    1  UNL1        0.0220
     17 C          62.8738   86.1347   17.0134 C.ar    1  UNL1        0.0990
     18 N          63.5920   85.9268   15.7131 N.ar    1  UNL1       -0.2410
     19 C          64.1060   87.1071   14.9432 C.ar    1  UNL1        0.1137
@<TRIPOS>BOND
     1     1     2    1
     2     2     3    1
     3     3     4    1
     4     4    14    1
     5    14    15   ar
     6    15    16   ar
     7    16    17   ar
     8    17    18   ar
     9    18    19   ar
    10     4     5   am
    11     5     6    2
    12     5     7    1
    13     7     8   ar
    14     8     9   ar
    15     9    10   ar
    16    10    11    1
    17    10    12   ar
    18    12    13   ar
    19    13     2    1
    20    19    14   ar
    21    13     7   ar
@<TRIPOS>MOLECULE
*****
 19 21 0 0 0
SMALL
GASTEIGER

@<TRIPOS>ATOM
      1 C          62.1225   87.1476   10.2239 C.3     1  UNL1        0.0065
      2 C          62.7650   87.0164   11.5730 C.3     1  UNL1        0.0427
      3 C          63.0504   88.2415   12.3900 C.3     1  UNL1        0.1028
      4 N          63.6929   88.1104   13.7391 N.am    1  UNL1       -0.2534
      5 C          64.0499   86.7541   14.2711 C.2     1  UNL1        0.2525
      6 O          64.6924   86.6230   15.6202 O.2     1  UNL1       -0.2696
      7 C          63.7645   85.5289   13.4541 C.ar    1  UNL1        0.0500
      8 C          64.1215   84.1727   13.9861 C.ar    1  UNL1        0.0051
      9 C          63.8361   82.9476   13.1690 C.ar    1  UNL1        0.0115
     10 C          63.1936   83.0788   11.8199 C.ar    1  UNL1        0.0574
     11 CL         62.9082   81.8536   11.0029 Cl      1  UNL1       -0.0823
     12 C          62.8366   84.4350   11.2879 C.ar    1  UNL1        0.0073
     13 C          63.1220   85.6601   12.1050 C.ar    1  UNL1       -0.0156
     14 C          63.9783   89.3355   14.5562 C.ar    1  UNL1        0.0733
     15 C          65.0524   90.2903   14.1263 C.ar    1  UNL1        0.0181
     16 C          65.3378   91.5154   14.9433 C.ar    1  UNL1        0.0220
     17 C          64.5491   91.7857   16.1903 C.ar    1  UNL1        0.0990
     18 N          63.4751   90.8310   16.6202 N.ar    1  UNL1       -0.2410
     19 C          63.1897   89.6059   15.8032 C.ar    1  UNL1        0.1137
@<TRIPOS>BOND
     1     1     2    1
     2     2     3    1
     3     3     4    1
     4     4    14    1
     5    14    15   ar
     6    15    16   ar
     7    16    17   ar
     8    17    18   ar
     9    18    19   ar
    10     4     5   am
    11     5     6    2
    12     5     7    1
    13     7     8   ar
    14     8     9   ar
    15     9    10   ar
    16    10    11    1
    17    10    12   ar
    18    12    13   ar
    19    13     2    1
    20    19    14   ar
    21    13     7   ar
