@<TRIPOS>MOLECULE
*****
 34 37 0 0 0
SMALL
GASTEIGER

@<TRIPOS>ATOM
      1 C          60.5316   86.7009    8.1798 C.3     1  UNL1        0.0796
      2 C          59.7788   87.5098    7.1654 C.3     1  UNL1        0.0178
      3 C          59.4313   88.9400    7.4547 C.3     1  UNL1        0.0030
      4 C          59.8367   89.5614    8.7584 C.3     1  UNL1        0.0213
      5 C          60.5895   88.7525    9.7727 C.3     1  UNL1        0.1160
      6 N          60.9370   87.3223    9.4834 N.3     1  UNL1       -0.1549
      7 C          60.9950   89.3739   11.0764 C.3     1  UNL1        0.1525
      8 C          60.8825   89.9974   12.4360 C.3     1  UNL1        0.0452
      9 C          59.6444   89.5961   11.6902 C.3     1  UNL1        0.0452
     10 O          62.4863   89.3674   10.9153 O.3     1  UNL1       -0.4404
     11 C          63.2409   90.6629   10.8662 C.2     1  UNL1        0.4048
     12 O          63.1052   91.5652    9.6757 O.2     1  UNL1       -0.2262
     13 N          64.1312   91.0559   12.0076 N.am    1  UNL1       -0.2432
     14 C          64.2669   90.1536   13.1981 C.3     1  UNL1        0.1141
     15 C          65.1573   90.5467   14.3396 C.3     1  UNL1        0.0941
     16 N          65.9119   91.8420   14.2905 N.3     1  UNL1       -0.2676
     17 C          65.7762   92.7444   13.1000 C.3     1  UNL1        0.0941
     18 C          64.8858   92.3514   11.9585 C.3     1  UNL1        0.1141
     19 C          66.8022   92.2352   15.4319 C.3     1  UNL1        0.1043
     20 C          68.1218   92.8949   15.1610 C.3     1  UNL1        0.1544
     21 O          69.0987   92.2586   14.2172 O.3     1  UNL1       -0.3805
     22 H          69.4105   91.4198   14.5915 H       1  UNL1        0.2105
     23 S          61.6899   86.5134   10.4978 S.O2    1  UNL1        0.0633
     24 O          62.8636   86.4383    9.5668 O.2     1  UNL1       -0.1528
     25 O          60.8289   86.4028   11.5317 O.2     1  UNL1       -0.1528
     26 C          62.4428   85.7046   11.5122 C.ar    1  UNL1        0.1223
     27 C          63.0787   86.3822   12.6897 C.ar    1  UNL1        0.0208
     28 C          63.8316   85.5734   13.7040 C.ar    1  UNL1        0.0128
     29 C          63.9486   84.0869   13.5409 C.ar    1  UNL1        0.0578
     30 CL         64.7015   83.2781   14.5552 Cl      1  UNL1       -0.0822
     31 C          63.3127   83.4092   12.3635 C.ar    1  UNL1        0.0128
     32 C          62.5598   84.2181   11.3491 C.ar    1  UNL1        0.0208
     33 C          61.6509   84.9220    6.6525 C.3     1  UNL1        0.0015
     34 C          60.8791   85.2707    7.8905 C.3     1  UNL1        0.0177
@<TRIPOS>BOND
     1    33    34    1
     2     1    34    1
     3     1     2    1
     4     2     3    1
     5     3     4    1
     6     4     5    1
     7     5     7    1
     8     7    10    1
     9    10    11    1
    10    11    12    2
    11    11    13   am
    12    13    14    1
    13    14    15    1
    14    15    16    1
    15    16    19    1
    16    19    20    1
    17    20    21    1
    18    16    17    1
    19    17    18    1
    20     7     8    1
    21     8     9    1
    22     5     6    1
    23     6    23    1
    24    23    24    2
    25    23    25    2
    26    23    26    1
    27    26    27   ar
    28    27    28   ar
    29    28    29   ar
    30    29    30    1
    31    29    31   ar
    32    31    32   ar
    33     6     1    1
    34    32    26   ar
    35     9     7    1
    36    18    13    1
    37    21    22    1
@<TRIPOS>MOLECULE
*****
 34 37 0 0 0
SMALL
GASTEIGER

@<TRIPOS>ATOM
      1 C          60.6284   86.6689    8.2247 C.3     1  UNL1        0.0796
      2 C          59.9125   87.5183    7.2168 C.3     1  UNL1        0.0178
      3 C          59.5705   88.9418    7.5433 C.3     1  UNL1        0.0030
      4 C          59.9444   89.5160    8.8776 C.3     1  UNL1        0.0213
      5 C          60.6603   88.6666    9.8855 C.3     1  UNL1        0.1160
      6 N          61.0023   87.2430    9.5591 N.3     1  UNL1       -0.1549
      7 C          61.0343   89.2407   11.2199 C.3     1  UNL1        0.1525
      8 C          60.8890   89.8207   12.5956 C.3     1  UNL1        0.0452
      9 C          59.6689   89.4570   11.8023 C.3     1  UNL1        0.0452
     10 O          62.5294   89.2237   11.1009 O.3     1  UNL1       -0.4404
     11 C          63.3753   89.8096   12.1924 C.2     1  UNL1        0.4048
     12 O          63.4546   89.1292   13.5269 O.2     1  UNL1       -0.2262
     13 N          64.1419   91.0757   11.9494 N.am    1  UNL1       -0.2432
     14 C          64.0626   91.7561   10.6150 C.3     1  UNL1        0.1141
     15 C          64.8292   93.0224   10.3720 C.3     1  UNL1        0.0941
     16 N          65.6751   93.6082   11.4634 N.3     1  UNL1       -0.2676
     17 C          65.7544   92.9279   12.7978 C.3     1  UNL1        0.0941
     18 C          64.9878   91.6616   13.0409 C.3     1  UNL1        0.1141
     19 C          66.4417   94.8744   11.2204 C.3     1  UNL1        0.1043
     20 C          67.2415   95.0372    9.9620 C.3     1  UNL1        0.1544
     21 O          68.3024   94.0358    9.6128 O.3     1  UNL1       -0.3805
     22 H          69.0175   94.0811   10.2666 H       1  UNL1        0.2105
     23 S          61.7183   86.3936   10.5671 S.O2    1  UNL1        0.0633
     24 O          62.8725   86.2437    9.6209 O.2     1  UNL1       -0.1528
     25 O          60.8663   86.3396   11.6128 O.2     1  UNL1       -0.1528
     26 C          62.4343   85.5442   11.5750 C.ar    1  UNL1        0.1223
     27 C          63.0799   86.1815   12.7696 C.ar    1  UNL1        0.0208
     28 C          63.7959   85.3322   13.7775 C.ar    1  UNL1        0.0128
     29 C          63.8662   83.8455   13.5909 C.ar    1  UNL1        0.0578
     30 CL         64.5822   82.9961   14.5988 Cl      1  UNL1       -0.0822
     31 C          63.2206   83.2082   12.3964 C.ar    1  UNL1        0.0128
     32 C          62.5046   84.0576   11.3884 C.ar    1  UNL1        0.0208
     33 C          61.5702   84.9046    6.5664 C.3     1  UNL1        0.0015
     34 C          60.9705   85.2453    7.8983 C.3     1  UNL1        0.0177
@<TRIPOS>BOND
     1    33    34    1
     2     1    34    1
     3     1     2    1
     4     2     3    1
     5     3     4    1
     6     4     5    1
     7     5     7    1
     8     7    10    1
     9    10    11    1
    10    11    12    2
    11    11    13   am
    12    13    14    1
    13    14    15    1
    14    15    16    1
    15    16    19    1
    16    19    20    1
    17    20    21    1
    18    16    17    1
    19    17    18    1
    20     7     8    1
    21     8     9    1
    22     5     6    1
    23     6    23    1
    24    23    24    2
    25    23    25    2
    26    23    26    1
    27    26    27   ar
    28    27    28   ar
    29    28    29   ar
    30    29    30    1
    31    29    31   ar
    32    31    32   ar
    33     6     1    1
    34    32    26   ar
    35     9     7    1
    36    18    13    1
    37    21    22    1
@<TRIPOS>MOLECULE
*****
 34 37 0 0 0
SMALL
GASTEIGER

@<TRIPOS>ATOM
      1 C          65.3709   91.5972   12.7889 C.3     1  UNL1        0.0796
      2 C          65.6398   92.4658   11.5959 C.3     1  UNL1        0.0178
      3 C          64.7098   92.4333   10.4195 C.3     1  UNL1        0.0030
      4 C          63.5108   91.5321   10.4360 C.3     1  UNL1        0.0213
      5 C          63.2418   90.6635   11.6289 C.3     1  UNL1        0.1160
      6 N          64.1719   90.6961   12.8054 N.3     1  UNL1       -0.1549
      7 C          62.0428   89.7624   11.6455 C.3     1  UNL1        0.1525
      8 C          60.6111   89.3198   11.5793 C.3     1  UNL1        0.0452
      9 C          60.9563   90.7701   11.4130 C.3     1  UNL1        0.0452
     10 O          62.7129   88.4417   11.8838 O.3     1  UNL1       -0.4404
     11 C          62.5460   87.3267   10.8943 C.2     1  UNL1        0.4048
     12 O          62.1660   87.6333    9.4760 O.2     1  UNL1       -0.2262
     13 N          62.7592   85.9053   11.3232 N.am    1  UNL1       -0.2432
     14 C          63.1393   85.5987   12.7415 C.3     1  UNL1        0.1141
     15 C          63.3525   84.1772   13.1703 C.3     1  UNL1        0.0941
     16 N          63.1856   83.0623   12.1809 N.3     1  UNL1       -0.2676
     17 C          62.8056   83.3687   10.7626 C.3     1  UNL1        0.0941
     18 C          62.5924   84.7903   10.3337 C.3     1  UNL1        0.1141
     19 C          63.3988   81.6407   12.6097 C.3     1  UNL1        0.1043
     20 C          62.3494   80.9354   13.4166 C.3     1  UNL1        0.1544
     21 O          62.0195   81.4134   14.7997 O.3     1  UNL1       -0.3805
     22 H          62.7861   81.2808   15.3790 H       1  UNL1        0.2105
     23 S          63.9028   89.8274   13.9983 S.O2    1  UNL1        0.0633
     24 O          63.1511   90.9515   14.6473 O.2     1  UNL1       -0.1528
     25 O          64.5008   88.6566   13.6914 O.2     1  UNL1       -0.1528
     26 C          63.6338   88.9588   15.1913 C.ar    1  UNL1        0.1223
     27 C          63.9164   87.4870   15.1265 C.ar    1  UNL1        0.0208
     28 C          63.6473   86.6185   16.3194 C.ar    1  UNL1        0.0128
     29 C          63.0957   87.2216   17.5772 C.ar    1  UNL1        0.0578
     30 CL         62.8267   86.3530   18.7701 Cl      1  UNL1       -0.0822
     31 C          62.8132   88.6932   17.6420 C.ar    1  UNL1        0.0128
     32 C          63.0822   89.5619   16.4491 C.ar    1  UNL1        0.0208
     33 C          66.2420   92.7712   14.9366 C.3     1  UNL1        0.0015
     34 C          66.3009   91.6297   13.9653 C.3     1  UNL1        0.0177
@<TRIPOS>BOND
     1    33    34    1
     2     1    34    1
     3     1     2    1
     4     2     3    1
     5     3     4    1
     6     4     5    1
     7     5     7    1
     8     7    10    1
     9    10    11    1
    10    11    12    2
    11    11    13   am
    12    13    14    1
    13    14    15    1
    14    15    16    1
    15    16    19    1
    16    19    20    1
    17    20    21    1
    18    16    17    1
    19    17    18    1
    20     7     8    1
    21     8     9    1
    22     5     6    1
    23     6    23    1
    24    23    24    2
    25    23    25    2
    26    23    26    1
    27    26    27   ar
    28    27    28   ar
    29    28    29   ar
    30    29    30    1
    31    29    31   ar
    32    31    32   ar
    33     6     1    1
    34    32    26   ar
    35     9     7    1
    36    18    13    1
    37    21    22    1
@<TRIPOS>MOLECULE
*****
 34 37 0 0 0
SMALL
GASTEIGER

@<TRIPOS>ATOM
      1 C          63.6060   84.4125   10.6387 C.3     1  UNL1        0.0796
      2 C          63.5986   84.2442    9.1482 C.3     1  UNL1        0.0178
      3 C          62.8706   85.2319    8.2854 C.3     1  UNL1        0.0030
      4 C          62.1500   86.3881    8.9131 C.3     1  UNL1        0.0213
      5 C          62.1574   86.5564   10.4036 C.3     1  UNL1        0.1160
      6 N          62.8854   85.5686   11.2664 N.3     1  UNL1       -0.1549
      7 C          61.4368   87.7126   11.0314 C.3     1  UNL1        0.1525
      8 C          60.3173   88.6307   11.4235 C.3     1  UNL1        0.0452
      9 C          60.0377   87.4286   10.5708 C.3     1  UNL1        0.0452
     10 O          62.5856   88.3980   11.7099 O.3     1  UNL1       -0.4404
     11 C          63.0900   89.7107   11.1879 C.2     1  UNL1        0.4048
     12 O          62.7328   90.1529    9.7998 O.2     1  UNL1       -0.2262
     13 N          63.9514   90.5811   12.0539 N.am    1  UNL1       -0.2432
     14 C          64.3086   90.1390   13.4421 C.3     1  UNL1        0.1141
     15 C          65.1701   91.0095   14.3082 C.3     1  UNL1        0.0941
     16 N          65.6744   92.3221   13.7862 N.3     1  UNL1       -0.2676
     17 C          65.3173   92.7643   12.3981 C.3     1  UNL1        0.0941
     18 C          64.4558   91.8938   11.5319 C.3     1  UNL1        0.1141
     19 C          66.5359   93.1926   14.6523 C.3     1  UNL1        0.1043
     20 C          67.9752   92.8358   14.8782 C.3     1  UNL1        0.1544
     21 O          68.7174   92.0287   13.8545 O.3     1  UNL1       -0.3805
     22 H          68.3352   91.1385   13.8055 H       1  UNL1        0.2105
     23 S          62.8927   85.7370   12.7569 S.O2    1  UNL1        0.0633
     24 O          61.7320   84.7935   12.8692 O.2     1  UNL1       -0.1528
     25 O          63.9078   86.5976   12.9834 O.2     1  UNL1       -0.1528
     26 C          62.9000   85.9054   14.2474 C.ar    1  UNL1        0.1223
     27 C          62.2191   84.8928   15.1199 C.ar    1  UNL1        0.0208
     28 C          62.2264   85.0612   16.6104 C.ar    1  UNL1        0.0128
     29 C          62.9145   86.2421   17.2284 C.ar    1  UNL1        0.0578
     30 CL         62.9218   86.4104   18.7189 Cl      1  UNL1       -0.0822
     31 C          63.5954   87.2546   16.3560 C.ar    1  UNL1        0.0128
     32 C          63.5881   87.0863   14.8654 C.ar    1  UNL1        0.0208
     33 C          63.7275   82.0812   11.7788 C.3     1  UNL1        0.0015
     34 C          64.3339   83.4247   11.5015 C.3     1  UNL1        0.0177
@<TRIPOS>BOND
     1    33    34    1
     2     1    34    1
     3     1     2    1
     4     2     3    1
     5     3     4    1
     6     4     5    1
     7     5     7    1
     8     7    10    1
     9    10    11    1
    10    11    12    2
    11    11    13   am
    12    13    14    1
    13    14    15    1
    14    15    16    1
    15    16    19    1
    16    19    20    1
    17    20    21    1
    18    16    17    1
    19    17    18    1
    20     7     8    1
    21     8     9    1
    22     5     6    1
    23     6    23    1
    24    23    24    2
    25    23    25    2
    26    23    26    1
    27    26    27   ar
    28    27    28   ar
    29    28    29   ar
    30    29    30    1
    31    29    31   ar
    32    31    32   ar
    33     6     1    1
    34    32    26   ar
    35     9     7    1
    36    18    13    1
    37    21    22    1
@<TRIPOS>MOLECULE
*****
 34 37 0 0 0
SMALL
GASTEIGER

@<TRIPOS>ATOM
      1 C          60.9175   92.7239    2.1748 C.3     1  UNL1        0.0796
      2 C          62.1887   92.3240    2.8632 C.3     1  UNL1        0.0178
      3 C          63.5139   92.6737    2.2535 C.3     1  UNL1        0.0030
      4 C          63.5678   93.4233    0.9554 C.3     1  UNL1        0.0213
      5 C          62.2966   93.8233    0.2670 C.3     1  UNL1        0.1160
      6 N          60.9714   93.4736    0.8767 N.3     1  UNL1       -0.1549
      7 C          62.3504   94.5730   -1.0311 C.3     1  UNL1        0.1525
      8 C          62.5016   95.7112   -1.9963 C.3     1  UNL1        0.0452
      9 C          62.6493   95.9524   -0.5231 C.3     1  UNL1        0.0452
     10 O          62.0702   93.4539   -1.9899 O.3     1  UNL1       -0.4404
     11 C          61.7690   93.7562   -3.4279 C.2     1  UNL1        0.4048
     12 O          60.3824   94.1582   -3.8352 O.2     1  UNL1       -0.2262
     13 N          62.8542   93.6564   -4.4586 N.am    1  UNL1       -0.2432
     14 C          64.2407   93.2543   -4.0513 C.3     1  UNL1        0.1141
     15 C          65.3259   93.1545   -5.0820 C.3     1  UNL1        0.0941
     16 N          65.0247   93.4567   -6.5199 N.3     1  UNL1       -0.2676
     17 C          63.6382   93.8588   -6.9273 C.3     1  UNL1        0.0941
     18 C          62.5529   93.9586   -5.8966 C.3     1  UNL1        0.1141
     19 C          66.1099   93.3569   -7.5507 C.3     1  UNL1        0.1043
     20 C          67.2300   94.3545   -7.5595 C.3     1  UNL1        0.1544
     21 O          68.6302   93.9129   -7.2521 O.3     1  UNL1       -0.3805
     22 H          68.6814   93.6195   -6.3290 H       1  UNL1        0.2105
     23 S          59.7001   93.8736    0.1882 S.O2    1  UNL1        0.0633
     24 O          59.6862   92.5656   -0.5458 O.2     1  UNL1       -0.1528
     25 O          59.4355   95.1030    0.6794 O.2     1  UNL1       -0.1528
     26 C          58.4289   94.2736   -0.5002 C.ar    1  UNL1        0.1223
     27 C          57.4015   93.2350   -0.8407 C.ar    1  UNL1        0.0208
     28 C          56.1303   93.6349   -1.5291 C.ar    1  UNL1        0.0128
     29 C          55.8864   95.0734   -1.8772 C.ar    1  UNL1        0.0578
     30 CL         54.6152   95.4734   -2.5657 Cl      1  UNL1       -0.0822
     31 C          56.9137   96.1120   -1.5368 C.ar    1  UNL1        0.0128
     32 C          58.1850   95.7121   -0.8483 C.ar    1  UNL1        0.0208
     33 C          59.4359   92.3504    4.2761 C.3     1  UNL1        0.0015
     34 C          59.5924   92.3743    2.7845 C.3     1  UNL1        0.0177
@<TRIPOS>BOND
     1    33    34    1
     2     1    34    1
     3     1     2    1
     4     2     3    1
     5     3     4    1
     6     4     5    1
     7     5     7    1
     8     7    10    1
     9    10    11    1
    10    11    12    2
    11    11    13   am
    12    13    14    1
    13    14    15    1
    14    15    16    1
    15    16    19    1
    16    19    20    1
    17    20    21    1
    18    16    17    1
    19    17    18    1
    20     7     8    1
    21     8     9    1
    22     5     6    1
    23     6    23    1
    24    23    24    2
    25    23    25    2
    26    23    26    1
    27    26    27   ar
    28    27    28   ar
    29    28    29   ar
    30    29    30    1
    31    29    31   ar
    32    31    32   ar
    33     6     1    1
    34    32    26   ar
    35     9     7    1
    36    18    13    1
    37    21    22    1
@<TRIPOS>MOLECULE
*****
 34 37 0 0 0
SMALL
GASTEIGER

@<TRIPOS>ATOM
      1 C          60.9243   92.7732    2.2180 C.3     1  UNL1        0.0796
      2 C          62.1949   92.3557    2.8972 C.3     1  UNL1        0.0178
      3 C          63.5206   92.7310    2.3044 C.3     1  UNL1        0.0030
      4 C          63.5758   93.5239    1.0323 C.3     1  UNL1        0.0213
      5 C          62.3053   93.9414    0.3531 C.3     1  UNL1        0.1160
      6 N          60.9796   93.5660    0.9459 N.3     1  UNL1       -0.1549
      7 C          62.3605   94.7343   -0.9191 C.3     1  UNL1        0.1525
      8 C          62.4567   95.9123   -1.8428 C.3     1  UNL1        0.0452
      9 C          62.4978   96.1185   -0.3576 C.3     1  UNL1        0.0452
     10 O          62.2423   93.6255   -1.9223 O.3     1  UNL1       -0.4404
     11 C          62.3990   93.9179   -3.3852 C.2     1  UNL1        0.4048
     12 O          63.7688   94.0025   -3.9907 O.2     1  UNL1       -0.2262
     13 N          61.1859   94.1257   -4.2427 N.am    1  UNL1       -0.2432
     14 C          59.8161   94.0411   -3.6373 C.3     1  UNL1        0.1141
     15 C          58.6030   94.2489   -4.4948 C.3     1  UNL1        0.0941
     16 N          58.7597   94.5413   -5.9575 N.3     1  UNL1       -0.2676
     17 C          60.1294   94.6259   -6.5630 C.3     1  UNL1        0.0941
     18 C          61.3426   94.4181   -5.7056 C.3     1  UNL1        0.1141
     19 C          57.5465   94.7491   -6.8150 C.3     1  UNL1        0.1043
     20 C          56.2009   94.9336   -6.1785 C.3     1  UNL1        0.1544
     21 O          55.2428   93.7819   -6.1028 O.3     1  UNL1       -0.3805
     22 H          54.9659   93.5322   -6.9982 H       1  UNL1        0.2105
     23 S          59.7090   93.9836    0.2666 S.O2    1  UNL1        0.0633
     24 O          59.6644   92.6705   -0.4570 O.2     1  UNL1       -0.1528
     25 O          59.4713   95.2212    0.7506 O.2     1  UNL1       -0.1528
     26 C          58.4385   94.4011   -0.4126 C.ar    1  UNL1        0.1223
     27 C          58.1761   95.8525   -0.6861 C.ar    1  UNL1        0.0208
     28 C          56.9056   96.2700   -1.3654 C.ar    1  UNL1        0.0128
     29 C          55.8974   95.2361   -1.7712 C.ar    1  UNL1        0.0578
     30 CL         54.6269   95.6536   -2.4505 Cl      1  UNL1       -0.0822
     31 C          56.1597   93.7848   -1.4978 C.ar    1  UNL1        0.0128
     32 C          57.4303   93.3672   -0.8185 C.ar    1  UNL1        0.0208
     33 C          59.4259   92.3634    4.3005 C.3     1  UNL1        0.0015
     34 C          59.5986   92.3978    2.8109 C.3     1  UNL1        0.0177
@<TRIPOS>BOND
     1    33    34    1
     2     1    34    1
     3     1     2    1
     4     2     3    1
     5     3     4    1
     6     4     5    1
     7     5     7    1
     8     7    10    1
     9    10    11    1
    10    11    12    2
    11    11    13   am
    12    13    14    1
    13    14    15    1
    14    15    16    1
    15    16    19    1
    16    19    20    1
    17    20    21    1
    18    16    17    1
    19    17    18    1
    20     7     8    1
    21     8     9    1
    22     5     6    1
    23     6    23    1
    24    23    24    2
    25    23    25    2
    26    23    26    1
    27    26    27   ar
    28    27    28   ar
    29    28    29   ar
    30    29    30    1
    31    29    31   ar
    32    31    32   ar
    33     6     1    1
    34    32    26   ar
    35     9     7    1
    36    18    13    1
    37    21    22    1
@<TRIPOS>MOLECULE
*****
 34 37 0 0 0
SMALL
GASTEIGER

@<TRIPOS>ATOM
      1 C          64.0580   95.0793   -0.2577 C.3     1  UNL1        0.0796
      2 C          64.5966   95.9028   -1.3898 C.3     1  UNL1        0.0178
      3 C          63.6660   96.4358   -2.4385 C.3     1  UNL1        0.0030
      4 C          62.1967   96.1454   -2.3551 C.3     1  UNL1        0.0213
      5 C          61.6581   95.3220   -1.2230 C.3     1  UNL1        0.1160
      6 N          62.5887   94.7889   -0.1743 N.3     1  UNL1       -0.1549
      7 C          60.1888   95.0315   -1.1396 C.3     1  UNL1        0.1525
      8 C          58.7391   95.1867   -0.7871 C.3     1  UNL1        0.0452
      9 C          59.7348   96.2138   -0.3357 C.3     1  UNL1        0.0452
     10 O          60.1327   93.7484   -1.9144 O.3     1  UNL1       -0.4404
     11 C          58.9032   92.8909   -1.8571 C.2     1  UNL1        0.4048
     12 O          58.5073   92.2328   -0.5687 O.2     1  UNL1       -0.2262
     13 N          58.0698   92.6916   -3.0882 N.am    1  UNL1       -0.2432
     14 C          58.4657   93.3497   -4.3766 C.3     1  UNL1        0.1141
     15 C          57.6322   93.1504   -5.6077 C.3     1  UNL1        0.0941
     16 N          56.4029   92.2930   -5.5504 N.3     1  UNL1       -0.2676
     17 C          56.0068   91.6348   -4.2621 C.3     1  UNL1        0.0941
     18 C          56.8403   91.8341   -3.0309 C.3     1  UNL1        0.1141
     19 C          55.5693   92.0936   -6.7816 C.3     1  UNL1        0.1043
     20 C          55.0762   90.7231   -7.1395 C.3     1  UNL1        0.1544
     21 O          53.8025   90.2041   -6.5407 O.3     1  UNL1       -0.3805
     22 H          53.9177   90.0905   -5.5843 H       1  UNL1        0.2105
     23 S          62.0500   93.9654    0.9579 S.O2    1  UNL1        0.0633
     24 O          61.9334   95.2006    1.8008 O.2     1  UNL1       -0.1528
     25 O          62.0346   92.7074    0.4682 O.2     1  UNL1       -0.1528
     26 C          61.5114   93.1420    2.0900 C.ar    1  UNL1        0.1223
     27 C          60.0960   93.3326    2.5489 C.ar    1  UNL1        0.0208
     28 C          59.5574   92.5092    3.6811 C.ar    1  UNL1        0.0128
     29 C          60.4339   91.4951    4.3543 C.ar    1  UNL1        0.0578
     30 CL         59.8953   90.6716    5.4864 Cl      1  UNL1       -0.0822
     31 C          61.8492   91.3044    3.8954 C.ar    1  UNL1        0.0128
     32 C          62.3880   92.1279    2.7632 C.ar    1  UNL1        0.0208
     33 C          65.4810   93.1318    0.7078 C.3     1  UNL1        0.0015
     34 C          64.9886   94.5462    0.7910 C.3     1  UNL1        0.0177
@<TRIPOS>BOND
     1    33    34    1
     2     1    34    1
     3     1     2    1
     4     2     3    1
     5     3     4    1
     6     4     5    1
     7     5     7    1
     8     7    10    1
     9    10    11    1
    10    11    12    2
    11    11    13   am
    12    13    14    1
    13    14    15    1
    14    15    16    1
    15    16    19    1
    16    19    20    1
    17    20    21    1
    18    16    17    1
    19    17    18    1
    20     7     8    1
    21     8     9    1
    22     5     6    1
    23     6    23    1
    24    23    24    2
    25    23    25    2
    26    23    26    1
    27    26    27   ar
    28    27    28   ar
    29    28    29   ar
    30    29    30    1
    31    29    31   ar
    32    31    32   ar
    33     6     1    1
    34    32    26   ar
    35     9     7    1
    36    18    13    1
    37    21    22    1
@<TRIPOS>MOLECULE
*****
 34 37 0 0 0
SMALL
GASTEIGER

@<TRIPOS>ATOM
      1 C          65.3861   91.5976   12.7927 C.3     1  UNL1        0.0796
      2 C          65.6487   92.5012   11.6246 C.3     1  UNL1        0.0178
      3 C          64.7173   92.4970   10.4489 C.3     1  UNL1        0.0030
      4 C          63.5232   91.5892   10.4412 C.3     1  UNL1        0.0213
      5 C          63.2606   90.6856   11.6092 C.3     1  UNL1        0.1160
      6 N          64.1920   90.6898   12.7850 N.3     1  UNL1       -0.1549
      7 C          62.0665   89.7777   11.6016 C.3     1  UNL1        0.1525
      8 C          60.6694   89.2843   11.8355 C.3     1  UNL1        0.0452
      9 C          61.0672   90.6559   12.2947 C.3     1  UNL1        0.0452
     10 O          62.6512   88.5844   10.9059 O.3     1  UNL1       -0.4404
     11 C          61.7607   87.6536   10.1372 C.2     1  UNL1        0.4048
     12 O          61.7460   86.1896   10.4635 O.2     1  UNL1       -0.2262
     13 N          60.8851   88.1868    9.0423 N.am    1  UNL1       -0.2432
     14 C          60.8998   89.6508    8.7160 C.3     1  UNL1        0.1141
     15 C          60.0241   90.1840    7.6211 C.3     1  UNL1        0.0941
     16 N          59.1337   89.2533    6.8525 N.3     1  UNL1       -0.2676
     17 C          59.1189   87.7893    7.1787 C.3     1  UNL1        0.0941
     18 C          59.9947   87.2560    8.2736 C.3     1  UNL1        0.1141
     19 C          58.2580   89.7865    5.7575 C.3     1  UNL1        0.1043
     20 C          58.4343   91.1959    5.2754 C.3     1  UNL1        0.1544
     21 O          57.2457   92.1039    5.1618 O.3     1  UNL1       -0.3805
     22 H          56.6487   91.7705    4.4738 H       1  UNL1        0.2105
     23 S          63.9293   89.7861   13.9531 S.O2    1  UNL1        0.0633
     24 O          63.3714   90.9453   14.7244 O.2     1  UNL1       -0.1528
     25 O          64.3594   88.5770   13.5339 O.2     1  UNL1       -0.1528
     26 C          63.6667   88.8825   15.1212 C.ar    1  UNL1        0.1223
     27 C          63.0825   89.4409   16.3850 C.ar    1  UNL1        0.0208
     28 C          62.8199   88.5373   17.5531 C.ar    1  UNL1        0.0128
     29 C          63.1413   87.0753   17.4575 C.ar    1  UNL1        0.0578
     30 CL         62.8786   86.1717   18.6255 Cl      1  UNL1       -0.0822
     31 C          63.7253   86.5168   16.1938 C.ar    1  UNL1        0.0128
     32 C          63.9880   87.4204   15.0256 C.ar    1  UNL1        0.0208
     33 C          66.4085   92.8127   14.8489 C.3     1  UNL1        0.0015
     34 C          66.3175   91.6018   13.9685 C.3     1  UNL1        0.0177
@<TRIPOS>BOND
     1    33    34    1
     2     1    34    1
     3     1     2    1
     4     2     3    1
     5     3     4    1
     6     4     5    1
     7     5     7    1
     8     7    10    1
     9    10    11    1
    10    11    12    2
    11    11    13   am
    12    13    14    1
    13    14    15    1
    14    15    16    1
    15    16    19    1
    16    19    20    1
    17    20    21    1
    18    16    17    1
    19    17    18    1
    20     7     8    1
    21     8     9    1
    22     5     6    1
    23     6    23    1
    24    23    24    2
    25    23    25    2
    26    23    26    1
    27    26    27   ar
    28    27    28   ar
    29    28    29   ar
    30    29    30    1
    31    29    31   ar
    32    31    32   ar
    33     6     1    1
    34    32    26   ar
    35     9     7    1
    36    18    13    1
    37    21    22    1
@<TRIPOS>MOLECULE
*****
 34 37 0 0 0
SMALL
GASTEIGER

@<TRIPOS>ATOM
      1 C          63.2459   95.6700   -4.0184 C.3     1  UNL1        0.0796
      2 C          63.0027   96.4038   -5.3038 C.3     1  UNL1        0.0178
      3 C          61.5993   96.6691   -5.7620 C.3     1  UNL1        0.0030
      4 C          60.4390   96.2006   -4.9349 C.3     1  UNL1        0.0213
      5 C          60.6822   95.4668   -3.6494 C.3     1  UNL1        0.1160
      6 N          62.0856   95.2014   -3.1912 N.3     1  UNL1       -0.1549
      7 C          59.5219   94.9982   -2.8222 C.3     1  UNL1        0.1525
      8 C          58.3422   95.0409   -1.8968 C.3     1  UNL1        0.0452
      9 C          59.0629   96.3075   -2.2521 C.3     1  UNL1        0.0452
     10 O          59.5780   93.5262   -3.1051 O.3     1  UNL1       -0.4404
     11 C          58.4839   92.6257   -2.6131 C.2     1  UNL1        0.4048
     12 O          58.3950   92.2804   -1.1561 O.2     1  UNL1       -0.2262
     13 N          57.4786   92.0706   -3.5781 N.am    1  UNL1       -0.2432
     14 C          57.5675   92.4160   -5.0351 C.3     1  UNL1        0.1141
     15 C          56.5621   91.8609   -6.0001 C.3     1  UNL1        0.0941
     16 N          55.4681   90.9604   -5.5082 N.3     1  UNL1       -0.2676
     17 C          55.3791   90.6150   -4.0513 C.3     1  UNL1        0.0941
     18 C          56.3845   91.1701   -3.0861 C.3     1  UNL1        0.1141
     19 C          54.4627   90.4053   -6.4732 C.3     1  UNL1        0.1043
     20 C          53.4519   89.3998   -6.0075 C.3     1  UNL1        0.1544
     21 O          52.0684   89.4032   -6.5872 O.3     1  UNL1       -0.3805
     22 H          51.6131   90.2210   -6.3325 H       1  UNL1        0.2105
     23 S          62.3288   94.4676   -1.9057 S.O2    1  UNL1        0.0633
     24 O          62.2094   95.7563   -1.1475 O.2     1  UNL1       -0.1528
     25 O          62.4859   93.1824   -2.2880 O.2     1  UNL1       -0.1528
     26 C          62.5719   93.7338   -0.6203 C.ar    1  UNL1        0.1223
     27 C          63.9302   93.7644    0.0155 C.ar    1  UNL1        0.0208
     28 C          64.1733   93.0306    1.3009 C.ar    1  UNL1        0.0128
     29 C          63.0582   92.2662    1.9507 C.ar    1  UNL1        0.0578
     30 CL         63.3013   91.5324    3.2361 Cl      1  UNL1       -0.0822
     31 C          61.6999   92.2355    1.3150 C.ar    1  UNL1        0.0128
     32 C          61.4567   92.9694    0.0294 C.ar    1  UNL1        0.0208
     33 C          65.3446   96.3875   -2.6654 C.3     1  UNL1        0.0015
     34 C          64.6493   95.4046   -3.5601 C.3     1  UNL1        0.0177
@<TRIPOS>BOND
     1    33    34    1
     2     1    34    1
     3     1     2    1
     4     2     3    1
     5     3     4    1
     6     4     5    1
     7     5     7    1
     8     7    10    1
     9    10    11    1
    10    11    12    2
    11    11    13   am
    12    13    14    1
    13    14    15    1
    14    15    16    1
    15    16    19    1
    16    19    20    1
    17    20    21    1
    18    16    17    1
    19    17    18    1
    20     7     8    1
    21     8     9    1
    22     5     6    1
    23     6    23    1
    24    23    24    2
    25    23    25    2
    26    23    26    1
    27    26    27   ar
    28    27    28   ar
    29    28    29   ar
    30    29    30    1
    31    29    31   ar
    32    31    32   ar
    33     6     1    1
    34    32    26   ar
    35     9     7    1
    36    18    13    1
    37    21    22    1
