@<TRIPOS>MOLECULE
*****
 33 36 0 0 0
SMALL
GASTEIGER

@<TRIPOS>ATOM
      1 N          63.6493   87.0470   15.6642 N.am    1  UNL1       -0.2681
      2 C          64.1115   88.1283   14.7331 C.2     1  UNL1        0.3082
      3 O          64.2397   87.8497   13.2649 O.2     1  UNL1       -0.2522
      4 N          64.4457   89.4885   15.2703 N.am    1  UNL1       -0.2681
      5 H          63.5651   87.2300   16.6279 H       1  UNL1        0.1564
      6 H          64.3616   89.6714   16.2340 H       1  UNL1        0.1564
      7 C          63.2910   83.9874   13.1621 C.ar    1  UNL1        0.0546
      8 C          62.6467   82.9668   14.0528 C.ar    1  UNL1        0.0046
      9 C          62.3366   83.3063   15.4806 C.ar    1  UNL1        0.0014
     10 C          62.6708   84.6664   16.0177 C.ar    1  UNL1        0.0147
     11 C          63.3151   85.6869   15.1270 C.ar    1  UNL1        0.0517
     12 C          63.6252   85.3475   13.6993 C.ar    1  UNL1        0.0192
     13 N          63.0902   84.5220   10.6275 N.am    1  UNL1       -0.3009
     14 C          63.6011   83.6479   11.7344 C.2     1  UNL1        0.2459
     15 O          64.4222   82.4343   11.4133 O.2     1  UNL1       -0.2701
     16 H          62.5514   85.3185   10.8382 H       1  UNL1        0.1497
     17 C          62.9819   85.1126    8.0998 C.3     1  UNL1        0.0230
     18 C          63.4003   84.1825    9.1997 C.3     1  UNL1        0.0898
     19 C          64.9080   90.5698   14.3393 C.ar    1  UNL1        0.0516
     20 C          66.1944   91.2926   14.6092 C.ar    1  UNL1        0.0147
     21 C          66.6567   92.3739   13.6781 C.ar    1  UNL1        0.0010
     22 C          65.8326   92.7325   12.4771 C.ar    1  UNL1       -0.0014
     23 C          64.5463   92.0097   12.2071 C.ar    1  UNL1        0.0010
     24 C          64.0840   90.9283   13.1383 C.ar    1  UNL1        0.0147
     25 C          66.2950   93.8138   11.5460 C.2     1  UNL1        0.0158
     26 C          65.8851   95.2366   11.7865 C.2     1  UNL1        0.0487
     27 C          66.3474   96.3179   10.8555 C.2     1  UNL1        0.2355
     28 N          67.2197   95.9766    9.6838 N.2     1  UNL1       -0.0325
     29 C          67.6296   94.5539    9.4433 C.2     1  UNL1        0.3799
     30 N          68.4765   93.9195    8.3802 N.2     1  UNL1       -0.0106
     31 C          68.5376   92.4460    8.6543 C.2     1  UNL1        0.3351
     32 N          67.7285   92.1697    9.8867 N.2     1  UNL1       -0.2103
     33 C          67.1673   93.4725   10.3744 C.3     1  UNL1        0.2404
@<TRIPOS>BOND
     1    17    18    1
     2    18    13    1
     3    13    14   am
     4    14    15    2
     5    14     7    1
     6     7     8   ar
     7     8     9   ar
     8     9    10   ar
     9    10    11   ar
    10    11     1    1
    11     1     2   am
    12     2     3    2
    13     2     4   am
    14     4    19    1
    15    19    20   ar
    16    20    21   ar
    17    21    22   ar
    18    22    25    1
    19    25    26    2
    20    26    27    1
    21    27    28    2
    22    28    29    1
    23    29    30    2
    24    30    31    1
    25    31    32    2
    26    32    33    1
    27    22    23   ar
    28    23    24   ar
    29    11    12   ar
    30    12     7   ar
    31    24    19   ar
    32    33    25    1
    33    33    29    1
    34    13    16    1
    35     1     5    1
    36     4     6    1
@<TRIPOS>MOLECULE
*****
 33 36 0 0 0
SMALL
GASTEIGER

@<TRIPOS>ATOM
      1 N          59.0078   90.4675    6.5403 N.am    1  UNL1       -0.2681
      2 C          59.8098   90.8793    5.3416 C.2     1  UNL1        0.3082
      3 O          61.0474   90.1178    4.9695 O.2     1  UNL1       -0.2522
      4 N          59.3743   92.0528    4.5148 N.am    1  UNL1       -0.2681
      5 H          58.1955   90.9674    6.7845 H       1  UNL1        0.1564
      6 H          58.5620   92.5526    4.7590 H       1  UNL1        0.1564
      7 C          60.7412   88.3337    9.4026 C.ar    1  UNL1        0.0546
      8 C          60.3142   86.9473    9.0206 C.ar    1  UNL1        0.0046
      9 C          59.4518   86.7344    7.8119 C.ar    1  UNL1        0.0014
     10 C          59.0164   87.9078    6.9851 C.ar    1  UNL1        0.0147
     11 C          59.4433   89.2941    7.3671 C.ar    1  UNL1        0.0517
     12 C          60.3056   89.5071    8.5758 C.ar    1  UNL1        0.0192
     13 N          62.1633   89.9073   10.9029 N.am    1  UNL1       -0.3009
     14 C          61.6035   88.5466   10.6112 C.2     1  UNL1        0.2459
     15 O          61.9062   87.3988   11.5282 O.2     1  UNL1       -0.2701
     16 H          61.9647   90.6607   10.3011 H       1  UNL1        0.1497
     17 C          64.0013   91.2591   12.1457 C.3     1  UNL1        0.0230
     18 C          63.0257   90.1202   12.1116 C.3     1  UNL1        0.0898
     19 C          60.1763   92.4646    3.3161 C.ar    1  UNL1        0.0516
     20 C          61.6562   92.2219    3.2843 C.ar    1  UNL1        0.0147
     21 C          62.4582   92.6337    2.0856 C.ar    1  UNL1        0.0010
     22 C          61.7804   93.2883    0.9184 C.ar    1  UNL1       -0.0014
     23 C          60.3005   93.5310    0.9501 C.ar    1  UNL1        0.0010
     24 C          59.4985   93.1191    2.1490 C.ar    1  UNL1        0.0147
     25 C          62.5824   93.7001   -0.2803 C.2     1  UNL1        0.0158
     26 C          62.2541   93.1378   -1.6316 C.2     1  UNL1        0.0487
     27 C          63.0561   93.5496   -2.8304 C.2     1  UNL1        0.2355
     28 N          64.1866   94.5237   -2.6779 N.2     1  UNL1       -0.0325
     29 C          64.5149   95.0861   -1.3266 C.2     1  UNL1        0.3799
     30 N          65.5637   96.0570   -0.8714 N.2     1  UNL1       -0.0106
     31 C          65.4099   96.2452    0.6088 C.2     1  UNL1        0.3351
     32 N          64.2660   95.3906    1.0683 N.2     1  UNL1       -0.2103
     33 C          63.7128   94.6742   -0.1278 C.3     1  UNL1        0.2404
@<TRIPOS>BOND
     1    17    18    1
     2    18    13    1
     3    13    14   am
     4    14    15    2
     5    14     7    1
     6     7     8   ar
     7     8     9   ar
     8     9    10   ar
     9    10    11   ar
    10    11     1    1
    11     1     2   am
    12     2     3    2
    13     2     4   am
    14     4    19    1
    15    19    20   ar
    16    20    21   ar
    17    21    22   ar
    18    22    25    1
    19    25    26    2
    20    26    27    1
    21    27    28    2
    22    28    29    1
    23    29    30    2
    24    30    31    1
    25    31    32    2
    26    32    33    1
    27    22    23   ar
    28    23    24   ar
    29    11    12   ar
    30    12     7   ar
    31    24    19   ar
    32    33    25    1
    33    33    29    1
    34    13    16    1
    35     1     5    1
    36     4     6    1
@<TRIPOS>MOLECULE
*****
 33 36 0 0 0
SMALL
GASTEIGER

@<TRIPOS>ATOM
      1 N          58.9060   88.8612    6.3003 N.am    1  UNL1       -0.2681
      2 C          59.7759   88.4930    7.4654 C.2     1  UNL1        0.3082
      3 O          60.8743   89.4162    7.9027 O.2     1  UNL1       -0.2522
      4 N          59.5475   87.2014    8.1934 N.am    1  UNL1       -0.2681
      5 H          58.1851   88.2552    6.0133 H       1  UNL1        0.1564
      6 H          58.8266   86.5954    7.9064 H       1  UNL1        0.1564
      7 C          60.6689   91.6931    4.1502 C.ar    1  UNL1        0.0546
      8 C          59.5910   92.7358    4.1165 C.ar    1  UNL1        0.0046
      9 C          58.2848   92.4869    4.8108 C.ar    1  UNL1        0.0014
     10 C          58.0565   91.1954    5.5387 C.ar    1  UNL1        0.0147
     11 C          59.1344   90.1527    5.5723 C.ar    1  UNL1        0.0517
     12 C          60.4405   90.4015    4.8781 C.ar    1  UNL1        0.0192
     13 N          62.0617   92.9701    2.3672 N.am    1  UNL1       -0.3009
     14 C          61.9750   91.9419    3.4560 C.2     1  UNL1        0.2459
     15 O          63.1944   91.1626    3.8504 O.2     1  UNL1       -0.2701
     16 H          61.2614   93.4816    2.1083 H       1  UNL1        0.1497
     17 C          64.1615   94.4524    1.9876 C.3     1  UNL1        0.0230
     18 C          63.3679   93.2190    1.6729 C.3     1  UNL1        0.0898
     19 C          60.4174   86.8332    9.3584 C.ar    1  UNL1        0.0516
     20 C          60.2330   87.5205   10.6790 C.ar    1  UNL1        0.0147
     21 C          61.1029   87.1523   11.8441 C.ar    1  UNL1        0.0010
     22 C          62.1574   86.0967   11.6888 C.ar    1  UNL1       -0.0014
     23 C          62.3418   85.4094   10.3683 C.ar    1  UNL1        0.0010
     24 C          61.4718   85.7777    9.2032 C.ar    1  UNL1        0.0147
     25 C          63.0273   85.7285   12.8539 C.2     1  UNL1        0.0158
     26 C          63.7971   86.7912   13.5806 C.2     1  UNL1        0.0487
     27 C          64.6670   86.4230   14.7457 C.2     1  UNL1        0.2355
     28 N          64.7672   84.9920   15.1843 N.2     1  UNL1       -0.0325
     29 C          63.9974   83.9293   14.4577 C.2     1  UNL1        0.3799
     30 N          63.8986   82.4462   14.6596 N.2     1  UNL1       -0.0106
     31 C          62.9675   81.8979   13.6192 C.2     1  UNL1        0.3351
     32 N          62.4909   83.0420   12.7743 N.2     1  UNL1       -0.2103
     33 C          63.1275   84.2975   13.2925 C.3     1  UNL1        0.2404
@<TRIPOS>BOND
     1    17    18    1
     2    18    13    1
     3    13    14   am
     4    14    15    2
     5    14     7    1
     6     7     8   ar
     7     8     9   ar
     8     9    10   ar
     9    10    11   ar
    10    11     1    1
    11     1     2   am
    12     2     3    2
    13     2     4   am
    14     4    19    1
    15    19    20   ar
    16    20    21   ar
    17    21    22   ar
    18    22    25    1
    19    25    26    2
    20    26    27    1
    21    27    28    2
    22    28    29    1
    23    29    30    2
    24    30    31    1
    25    31    32    2
    26    32    33    1
    27    22    23   ar
    28    23    24   ar
    29    11    12   ar
    30    12     7   ar
    31    24    19   ar
    32    33    25    1
    33    33    29    1
    34    13    16    1
    35     1     5    1
    36     4     6    1
@<TRIPOS>MOLECULE
*****
 33 36 0 0 0
SMALL
GASTEIGER

@<TRIPOS>ATOM
      1 N          58.6960   89.3567    6.1833 N.am    1  UNL1       -0.2681
      2 C          59.5973   88.7980    7.2440 C.2     1  UNL1        0.3082
      3 O          60.9242   89.4424    7.5165 O.2     1  UNL1       -0.2522
      4 N          59.1719   87.5949    8.0325 N.am    1  UNL1       -0.2681
      5 H          57.8251   88.9338    6.0045 H       1  UNL1        0.1564
      6 H          58.3010   87.1719    7.8537 H       1  UNL1        0.1564
      7 C          60.9142   91.8119    3.9920 C.ar    1  UNL1        0.0546
      8 C          59.9721   92.9661    3.8181 C.ar    1  UNL1        0.0046
      9 C          58.6046   92.9172    4.4326 C.ar    1  UNL1        0.0014
     10 C          58.1792   91.7141    5.2210 C.ar    1  UNL1        0.0147
     11 C          59.1214   90.5599    5.3949 C.ar    1  UNL1        0.0517
     12 C          60.4888   90.6087    4.7804 C.ar    1  UNL1        0.0192
     13 N          62.6486   92.9833    2.4526 N.am    1  UNL1       -0.3009
     14 C          62.2816   91.8608    3.3775 C.2     1  UNL1        0.2459
     15 O          63.2822   90.7873    3.6879 O.2     1  UNL1       -0.2701
     16 H          61.9919   93.6879    2.2488 H       1  UNL1        0.1497
     17 C          64.1855   93.4944    0.4211 C.3     1  UNL1        0.0230
     18 C          64.0161   93.0322    1.8380 C.3     1  UNL1        0.0898
     19 C          60.0733   87.0362    9.0932 C.ar    1  UNL1        0.0516
     20 C          61.0190   85.9199    8.7622 C.ar    1  UNL1        0.0147
     21 C          61.9204   85.3612    9.8229 C.ar    1  UNL1        0.0010
     22 C          61.8761   85.9187   11.2148 C.ar    1  UNL1       -0.0014
     23 C          60.9304   87.0350   11.5459 C.ar    1  UNL1        0.0010
     24 C          60.0290   87.5937   10.4850 C.ar    1  UNL1        0.0147
     25 C          62.7775   85.3600   12.2756 C.2     1  UNL1        0.0158
     26 C          62.9587   83.8762   12.4007 C.2     1  UNL1        0.0487
     27 C          63.8601   83.3175   13.4613 C.2     1  UNL1        0.2355
     28 N          64.5804   84.2425   14.3971 N.2     1  UNL1       -0.0325
     29 C          64.3993   85.7262   14.2720 C.2     1  UNL1        0.3799
     30 N          64.9739   86.8761   15.0450 N.2     1  UNL1       -0.0106
     31 C          64.4276   88.1456   14.4619 C.2     1  UNL1        0.3351
     32 N          63.5154   87.7803   13.3286 N.2     1  UNL1       -0.2103
     33 C          63.4978   86.2850   13.2113 C.3     1  UNL1        0.2404
@<TRIPOS>BOND
     1    17    18    1
     2    18    13    1
     3    13    14   am
     4    14    15    2
     5    14     7    1
     6     7     8   ar
     7     8     9   ar
     8     9    10   ar
     9    10    11   ar
    10    11     1    1
    11     1     2   am
    12     2     3    2
    13     2     4   am
    14     4    19    1
    15    19    20   ar
    16    20    21   ar
    17    21    22   ar
    18    22    25    1
    19    25    26    2
    20    26    27    1
    21    27    28    2
    22    28    29    1
    23    29    30    2
    24    30    31    1
    25    31    32    2
    26    32    33    1
    27    22    23   ar
    28    23    24   ar
    29    11    12   ar
    30    12     7   ar
    31    24    19   ar
    32    33    25    1
    33    33    29    1
    34    13    16    1
    35     1     5    1
    36     4     6    1
@<TRIPOS>MOLECULE
*****
 33 36 0 0 0
SMALL
GASTEIGER

@<TRIPOS>ATOM
      1 N          59.9483   94.2181    1.3997 N.am    1  UNL1       -0.2681
      2 C          60.1465   93.2031    2.4862 C.2     1  UNL1        0.3082
      3 O          61.5151   92.6525    2.7577 O.2     1  UNL1       -0.2522
      4 N          58.9760   92.7387    3.3013 N.am    1  UNL1       -0.2681
      5 H          59.0501   94.5795    1.2216 H       1  UNL1        0.1564
      6 H          58.0777   93.1000    3.1231 H       1  UNL1        0.1564
      7 C          62.5881   94.4999   -1.5503 C.ar    1  UNL1        0.0546
      8 C          63.4598   95.6115   -1.0454 C.ar    1  UNL1        0.0046
      9 C          63.1609   96.2585    0.2744 C.ar    1  UNL1        0.0014
     10 C          61.9904   95.7940    1.0895 C.ar    1  UNL1        0.0147
     11 C          61.1188   94.6825    0.5846 C.ar    1  UNL1        0.0517
     12 C          61.4176   94.0355   -0.7352 C.ar    1  UNL1        0.0192
     13 N          64.1823   93.1238   -3.0718 N.am    1  UNL1       -0.3009
     14 C          62.8869   93.8529   -2.8701 C.2     1  UNL1        0.2459
     15 O          61.8905   93.9349   -3.9883 O.2     1  UNL1       -0.2701
     16 H          64.8363   93.0700   -2.3379 H       1  UNL1        0.1497
     17 C          64.9113   93.3161   -5.5581 C.3     1  UNL1        0.0230
     18 C          64.4812   92.4768   -4.3917 C.3     1  UNL1        0.0898
     19 C          59.1741   91.7237    4.3877 C.ar    1  UNL1        0.0516
     20 C          60.5561   91.2508    4.7294 C.ar    1  UNL1        0.0147
     21 C          60.7542   90.2359    5.8159 C.ar    1  UNL1        0.0010
     22 C          59.5704   89.6937    6.5608 C.ar    1  UNL1       -0.0014
     23 C          58.1885   90.1665    6.2191 C.ar    1  UNL1        0.0010
     24 C          57.9904   91.1816    5.1326 C.ar    1  UNL1        0.0147
     25 C          59.7686   88.6787    7.6473 C.2     1  UNL1        0.0158
     26 C          59.7677   87.2157    7.3161 C.2     1  UNL1        0.0487
     27 C          59.9659   86.2007    8.4026 C.2     1  UNL1        0.2355
     28 N          60.1649   86.6486    9.8203 N.2     1  UNL1       -0.0325
     29 C          60.1658   88.1116   10.1514 C.2     1  UNL1        0.3799
     30 N          60.3368   88.8472   11.4474 N.2     1  UNL1       -0.0106
     31 C          60.2444   90.3169   11.1619 C.2     1  UNL1        0.3351
     32 N          60.0162   90.4896    9.6894 N.2     1  UNL1       -0.2103
     33 C          59.9676   89.1266    9.0649 C.3     1  UNL1        0.2404
@<TRIPOS>BOND
     1    17    18    1
     2    18    13    1
     3    13    14   am
     4    14    15    2
     5    14     7    1
     6     7     8   ar
     7     8     9   ar
     8     9    10   ar
     9    10    11   ar
    10    11     1    1
    11     1     2   am
    12     2     3    2
    13     2     4   am
    14     4    19    1
    15    19    20   ar
    16    20    21   ar
    17    21    22   ar
    18    22    25    1
    19    25    26    2
    20    26    27    1
    21    27    28    2
    22    28    29    1
    23    29    30    2
    24    30    31    1
    25    31    32    2
    26    32    33    1
    27    22    23   ar
    28    23    24   ar
    29    11    12   ar
    30    12     7   ar
    31    24    19   ar
    32    33    25    1
    33    33    29    1
    34    13    16    1
    35     1     5    1
    36     4     6    1
@<TRIPOS>MOLECULE
*****
 33 36 0 0 0
SMALL
GASTEIGER

@<TRIPOS>ATOM
      1 N          58.6327   91.6083    4.1833 N.am    1  UNL1       -0.2681
      2 C          59.3856   90.8362    5.2258 C.2     1  UNL1        0.3082
      3 O          60.8808   90.7405    5.1541 O.2     1  UNL1       -0.2522
      4 N          58.6434   90.1596    6.3400 N.am    1  UNL1       -0.2681
      5 H          57.6513   91.6710    4.2304 H       1  UNL1        0.1564
      6 H          57.6620   90.2223    6.3871 H       1  UNL1        0.1564
      7 C          59.4669   93.1285    0.6135 C.ar    1  UNL1        0.0546
      8 C          60.8594   93.6380    0.8408 C.ar    1  UNL1        0.0046
      9 C          61.5095   93.4710    2.1823 C.ar    1  UNL1        0.0014
     10 C          60.7672   92.7944    3.2964 C.ar    1  UNL1        0.0147
     11 C          59.3749   92.2849    3.0691 C.ar    1  UNL1        0.0517
     12 C          58.7247   92.4519    1.7278 C.ar    1  UNL1        0.0192
     13 N          57.7238   92.3603   -1.1532 N.am    1  UNL1       -0.3009
     14 C          58.8168   93.2955   -0.7278 C.2     1  UNL1        0.2459
     15 O          59.2596   94.3976   -1.6439 O.2     1  UNL1       -0.2701
     16 H          57.4331   91.6370   -0.5520 H       1  UNL1        0.1497
     17 C          57.7310   91.9682   -3.7215 C.3     1  UNL1        0.0230
     18 C          57.0736   92.5273   -2.4947 C.3     1  UNL1        0.0898
     19 C          59.3963   89.3874    7.3824 C.ar    1  UNL1        0.0516
     20 C          60.1547   90.1150    8.4528 C.ar    1  UNL1        0.0147
     21 C          60.9076   89.3429    9.4952 C.ar    1  UNL1        0.0010
     22 C          60.9023   87.8430    9.4674 C.ar    1  UNL1       -0.0014
     23 C          60.1441   87.1155    8.3970 C.ar    1  UNL1        0.0010
     24 C          59.3911   87.8877    7.3545 C.ar    1  UNL1        0.0147
     25 C          61.6553   87.0709   10.5099 C.2     1  UNL1        0.0158
     26 C          61.6295   85.5712   10.4969 C.2     1  UNL1        0.0487
     27 C          62.3824   84.7991   11.5393 C.2     1  UNL1        0.2355
     28 N          63.1613   85.5266   12.5948 N.2     1  UNL1       -0.0325
     29 C          63.1872   87.0263   12.6078 C.2     1  UNL1        0.3799
     30 N          63.8618   88.0106   13.5166 N.2     1  UNL1       -0.0106
     31 C          63.5257   89.3911   13.0358 C.2     1  UNL1        0.3351
     32 N          62.6434   89.2600   11.8299 N.2     1  UNL1       -0.2103
     33 C          62.4342   87.7984   11.5653 C.3     1  UNL1        0.2404
@<TRIPOS>BOND
     1    17    18    1
     2    18    13    1
     3    13    14   am
     4    14    15    2
     5    14     7    1
     6     7     8   ar
     7     8     9   ar
     8     9    10   ar
     9    10    11   ar
    10    11     1    1
    11     1     2   am
    12     2     3    2
    13     2     4   am
    14     4    19    1
    15    19    20   ar
    16    20    21   ar
    17    21    22   ar
    18    22    25    1
    19    25    26    2
    20    26    27    1
    21    27    28    2
    22    28    29    1
    23    29    30    2
    24    30    31    1
    25    31    32    2
    26    32    33    1
    27    22    23   ar
    28    23    24   ar
    29    11    12   ar
    30    12     7   ar
    31    24    19   ar
    32    33    25    1
    33    33    29    1
    34    13    16    1
    35     1     5    1
    36     4     6    1
@<TRIPOS>MOLECULE
*****
 33 36 0 0 0
SMALL
GASTEIGER

@<TRIPOS>ATOM
      1 N          61.5594   86.2377   12.4672 N.am    1  UNL1       -0.2681
      2 C          62.4722   87.3971   12.1981 C.2     1  UNL1        0.3082
      3 O          63.9586   87.2186   12.2905 O.2     1  UNL1       -0.2522
      4 N          61.8985   88.7352   11.8367 N.am    1  UNL1       -0.2681
      5 H          60.5838   86.3549   12.4066 H       1  UNL1        0.1564
      6 H          60.9229   88.8524   11.7761 H       1  UNL1        0.1564
      7 C          63.0695   82.5848   12.1110 C.ar    1  UNL1        0.0546
      8 C          63.2803   82.2236   13.5516 C.ar    1  UNL1        0.0046
      9 C          62.9175   83.2003   14.6306 C.ar    1  UNL1        0.0014
     10 C          62.3439   84.5383   14.2691 C.ar    1  UNL1        0.0147
     11 C          62.1331   84.8996   12.8286 C.ar    1  UNL1        0.0517
     12 C          62.4958   83.9229   11.7496 C.ar    1  UNL1        0.0192
     13 N          62.7217   80.2900   10.9436 N.am    1  UNL1       -0.3009
     14 C          63.4322   81.6081   11.0320 C.2     1  UNL1        0.2459
     15 O          64.5055   81.9495   10.0413 O.2     1  UNL1       -0.2701
     16 H          62.0173   80.0659   11.5938 H       1  UNL1        0.1497
     17 C          62.9161   77.8411   10.0980 C.3     1  UNL1        0.0230
     18 C          63.0845   79.3132    9.8646 C.3     1  UNL1        0.0898
     19 C          62.8113   89.8946   11.5677 C.ar    1  UNL1        0.0516
     20 C          62.8492   90.5187   10.2041 C.ar    1  UNL1        0.0147
     21 C          63.7620   91.6781    9.9351 C.ar    1  UNL1        0.0010
     22 C          64.6370   92.2136   11.0295 C.ar    1  UNL1       -0.0014
     23 C          64.5991   91.5896   12.3930 C.ar    1  UNL1        0.0010
     24 C          63.6862   90.4301   12.6621 C.ar    1  UNL1        0.0147
     25 C          65.5498   93.3730   10.7604 C.2     1  UNL1        0.0158
     26 C          65.1059   94.7684   11.0861 C.2     1  UNL1        0.0487
     27 C          66.0186   95.9278   10.8170 C.2     1  UNL1        0.2355
     28 N          67.3754   95.6920   10.2222 N.2     1  UNL1       -0.0325
     29 C          67.8193   94.2967    9.8966 C.2     1  UNL1        0.3799
     30 N          69.0901   93.7594    9.3080 N.2     1  UNL1       -0.0106
     31 C          68.9626   92.2678    9.2134 C.2     1  UNL1        0.3351
     32 N          67.6131   91.8833    9.7435 N.2     1  UNL1       -0.2103
     33 C          66.9065   93.1372   10.1657 C.3     1  UNL1        0.2404
@<TRIPOS>BOND
     1    17    18    1
     2    18    13    1
     3    13    14   am
     4    14    15    2
     5    14     7    1
     6     7     8   ar
     7     8     9   ar
     8     9    10   ar
     9    10    11   ar
    10    11     1    1
    11     1     2   am
    12     2     3    2
    13     2     4   am
    14     4    19    1
    15    19    20   ar
    16    20    21   ar
    17    21    22   ar
    18    22    25    1
    19    25    26    2
    20    26    27    1
    21    27    28    2
    22    28    29    1
    23    29    30    2
    24    30    31    1
    25    31    32    2
    26    32    33    1
    27    22    23   ar
    28    23    24   ar
    29    11    12   ar
    30    12     7   ar
    31    24    19   ar
    32    33    25    1
    33    33    29    1
    34    13    16    1
    35     1     5    1
    36     4     6    1
@<TRIPOS>MOLECULE
*****
 33 36 0 0 0
SMALL
GASTEIGER

@<TRIPOS>ATOM
      1 N          58.7777   91.8495    3.9486 N.am    1  UNL1       -0.2681
      2 C          59.4826   91.0370    4.9939 C.2     1  UNL1        0.3082
      3 O          60.9626   90.8128    4.8978 O.2     1  UNL1       -0.2522
      4 N          58.7076   90.4485    6.1355 N.am    1  UNL1       -0.2681
      5 H          57.8063   91.9966    4.0117 H       1  UNL1        0.1564
      6 H          57.7362   90.5957    6.1986 H       1  UNL1        0.1564
      7 C          61.7658   93.4094    1.8537 C.ar    1  UNL1        0.0546
      8 C          61.1027   93.6148    0.5239 C.ar    1  UNL1        0.0046
      9 C          59.6647   93.2317    0.3357 C.ar    1  UNL1        0.0014
     10 C          58.8897   92.6433    1.4773 C.ar    1  UNL1        0.0147
     11 C          59.5528   92.4380    2.8070 C.ar    1  UNL1        0.0517
     12 C          60.9907   92.8210    2.9953 C.ar    1  UNL1        0.0192
     13 N          63.6176   95.2300    1.9317 N.am    1  UNL1       -0.3009
     14 C          63.2037   93.7924    2.0419 C.2     1  UNL1        0.2459
     15 O          64.2279   92.7379    2.3402 O.2     1  UNL1       -0.2701
     16 H          62.9454   95.9222    1.7359 H       1  UNL1        0.1497
     17 C          65.4071   96.8550    2.8841 C.3     1  UNL1        0.0230
     18 C          65.0556   95.6131    2.1199 C.3     1  UNL1        0.0898
     19 C          59.4125   89.6360    7.1807 C.ar    1  UNL1        0.0516
     20 C          60.0771   90.3186    8.3394 C.ar    1  UNL1        0.0147
     21 C          60.7821   89.5061    9.3847 C.ar    1  UNL1        0.0010
     22 C          60.8224   88.0108    9.2715 C.ar    1  UNL1       -0.0014
     23 C          60.1578   87.3282    8.1129 C.ar    1  UNL1        0.0010
     24 C          59.4528   88.1409    7.0675 C.ar    1  UNL1        0.0147
     25 C          61.5274   87.1983   10.3168 C.2     1  UNL1        0.0158
     26 C          61.4063   85.7032   10.3126 C.2     1  UNL1        0.0487
     27 C          62.1112   84.8907   11.3579 C.2     1  UNL1        0.2355
     28 N          62.9373   85.5732   12.4076 N.2     1  UNL1       -0.0325
     29 C          63.0585   87.0682   12.4118 C.2     1  UNL1        0.3799
     30 N          63.7964   88.0128   13.3135 N.2     1  UNL1       -0.0106
     31 C          63.5476   89.4092   12.8255 C.2     1  UNL1        0.3351
     32 N          62.6558   89.3276   11.6221 N.2     1  UNL1       -0.2103
     33 C          62.3535   87.8808   11.3664 C.3     1  UNL1        0.2404
@<TRIPOS>BOND
     1    17    18    1
     2    18    13    1
     3    13    14   am
     4    14    15    2
     5    14     7    1
     6     7     8   ar
     7     8     9   ar
     8     9    10   ar
     9    10    11   ar
    10    11     1    1
    11     1     2   am
    12     2     3    2
    13     2     4   am
    14     4    19    1
    15    19    20   ar
    16    20    21   ar
    17    21    22   ar
    18    22    25    1
    19    25    26    2
    20    26    27    1
    21    27    28    2
    22    28    29    1
    23    29    30    2
    24    30    31    1
    25    31    32    2
    26    32    33    1
    27    22    23   ar
    28    23    24   ar
    29    11    12   ar
    30    12     7   ar
    31    24    19   ar
    32    33    25    1
    33    33    29    1
    34    13    16    1
    35     1     5    1
    36     4     6    1
