@<TRIPOS>MOLECULE
*****
 52 56 0 0 0
SMALL
GASTEIGER

@<TRIPOS>ATOM
      1 C          64.3766   91.8066   12.9156 C.3     1  UNL1        0.1205
      2 N          64.9976   92.6769   11.8636 N.am    1  UNL1       -0.2737
      3 C          66.0736   93.6531   12.2369 C.2     1  UNL1        0.2506
      4 O          66.5286   93.7589   13.6623 O.2     1  UNL1       -0.2699
      5 C          64.5426   92.5711   10.4382 C.3     1  UNL1        0.0939
      6 C          63.4666   91.5950   10.0648 C.3     1  UNL1        0.0257
      7 C          62.8456   90.7247   11.1169 C.3     1  UNL1        0.0525
      8 C          63.3006   90.8305   12.5423 C.3     1  UNL1        0.2170
      9 C          62.2567   89.7623   12.6806 C.2     1  UNL1        0.2636
     10 O          61.6191   89.5170   13.3892 O.2     1  UNL1       -0.2711
     11 N          62.0314   88.7847   11.5655 N.am    1  UNL1       -0.2732
     12 C          62.8501   88.8754   10.3118 C.3     1  UNL1        0.1149
     13 C          62.6248   87.8979    9.1966 C.3     1  UNL1        0.1124
     14 N          61.5809   86.8297    9.3350 N.pl3   1  UNL1       -0.3017
     15 C          60.7623   86.7390   10.5886 C.3     1  UNL1        0.1124
     16 C          60.9875   87.7165   11.7038 C.3     1  UNL1        0.1149
     17 C          61.3556   85.8522    8.2198 C.ar    1  UNL1        0.0824
     18 C          62.4345   84.8794    7.8458 C.ar    1  UNL1        0.0176
     19 C          62.2093   83.9019    6.7306 C.ar    1  UNL1        0.0015
     20 C          60.9052   83.8970    5.9895 C.ar    1  UNL1        0.0032
     21 C          59.8264   84.8697    6.3635 C.ar    1  UNL1        0.0382
     22 C          60.0516   85.8473    7.4786 C.ar    1  UNL1        0.1517
     23 O          58.9727   86.8201    7.8526 O.3     1  UNL1       -0.4742
     24 C          59.1955   88.2925    7.6735 C.3     1  UNL1        0.2059
     25 C          59.2646   88.8783    6.2943 C.3     1  UNL1        0.0532
     26 C          58.6204   90.2025    6.0088 C.3     1  UNL1        0.0455
     27 C          59.3545   91.2362    5.2072 C.2     1  UNL1        0.0505
     28 O          60.8157   91.0617    4.9167 O.co2   1  UNL1       -0.5492
     29 O          58.6273   92.4446    4.6961 O.co2   1  UNL1       -0.5492
     30 C          66.6946   94.5234   11.1848 C.ar    1  UNL1        0.0766
     31 C          66.3649   95.9857   11.1305 C.ar    1  UNL1        0.1033
     32 N          66.9859   96.8560   10.0784 N.ar    1  UNL1       -0.2422
     33 C          67.9367   96.2640    9.0806 C.ar    1  UNL1        0.0988
     34 C          68.2664   94.8017    9.1349 C.ar    1  UNL1        0.0247
     35 C          67.6454   93.9314   10.1870 C.ar    1  UNL1        0.0788
     36 C          67.9752   92.4691   10.2413 C.3     1  UNL1        0.4188
     37 F          68.3049   91.0068   10.2956 F       1  UNL1       -0.1659
     38 F          68.2008   92.5749   11.7205 F       1  UNL1       -0.1659
     39 F          67.7495   92.3633    8.7622 F       1  UNL1       -0.1659
     40 C          64.8315   91.9124   14.3410 C.3     1  UNL1        0.0239
     41 C          67.0552   91.9504   15.6840 C.3     1  UNL1        0.0001
     42 C          66.0980   91.2366   14.7762 C.3     1  UNL1        0.0018
     43 O          63.3930   90.5652   14.0157 O.3     1  UNL1       -0.4718
     44 C          63.6500   89.1735   14.5127 C.ar    1  UNL1        0.1459
     45 C          63.3752   88.6670   15.8976 C.ar    1  UNL1        0.0722
     46 S          63.7823   87.2244   15.9528 S.2     1  UNL1       -0.0794
     47 C          64.3087   86.8393   14.6021 C.ar    1  UNL1        0.1041
     48 C          64.2269   88.0439   13.7120 C.ar    1  UNL1        0.0478
     49 C          64.8261   85.4870   14.2101 C.3     1  UNL1        0.4242
     50 F          65.3434   84.1346   13.8181 F       1  UNL1       -0.1654
     51 F          66.1068   85.7656   14.9394 F       1  UNL1       -0.1654
     52 F          63.5453   85.2084   13.4807 F       1  UNL1       -0.1654
@<TRIPOS>UNITY_ATOM_ATTR
28 1
charge -1
@<TRIPOS>BOND
     1    41    42    1
     2    42    40    1
     3     1    40    1
     4     1     2    1
     5     2     3   am
     6     3     4    2
     7     3    30    1
     8    30    31   ar
     9    31    32   ar
    10    32    33   ar
    11    33    34   ar
    12    34    35   ar
    13    35    36    1
    14    36    37    1
    15    36    38    1
    16    36    39    1
    17     2     5    1
    18     5     6    1
    19     6     7    1
    20     7     8    1
    21     8    43    1
    22    43    44    1
    23    44    45   ar
    24    45    46   ar
    25    46    47   ar
    26    47    49    1
    27    49    50    1
    28    49    51    1
    29    49    52    1
    30    47    48   ar
    31     8     9    1
    32     9    10    2
    33     9    11   am
    34    11    12    1
    35    12    13    1
    36    13    14    1
    37    14    17    1
    38    17    18   ar
    39    18    19   ar
    40    19    20   ar
    41    20    21   ar
    42    21    22   ar
    43    22    23    1
    44    23    24    1
    45    24    25    1
    46    25    26    1
    47    26    27    1
    48    27    28   ar
    49    27    29   ar
    50    14    15    1
    51    15    16    1
    52     8     1    1
    53    48    44   ar
    54    16    11    1
    55    35    30   ar
    56    22    17   ar
@<TRIPOS>MOLECULE
*****
 52 56 0 0 0
SMALL
GASTEIGER

@<TRIPOS>ATOM
      1 C          64.4434   91.8245   12.8961 C.3     1  UNL1        0.1205
      2 N          65.0456   92.6911   11.8301 N.am    1  UNL1       -0.2737
      3 C          66.1390   93.6574   12.1779 C.2     1  UNL1        0.2506
      4 O          66.6301   93.7570   13.5917 O.2     1  UNL1       -0.2699
      5 C          64.5544   92.5915   10.4163 C.3     1  UNL1        0.0939
      6 C          63.4611   91.6253   10.0685 C.3     1  UNL1        0.0257
      7 C          62.8589   90.7587   11.1344 C.3     1  UNL1        0.0525
      8 C          63.3501   90.8583   12.5482 C.3     1  UNL1        0.2170
      9 C          62.3008   89.7989   12.7111 C.2     1  UNL1        0.2636
     10 O          61.6671   89.5687   13.4281 O.2     1  UNL1       -0.2711
     11 N          62.0611   88.8055   11.6130 N.am    1  UNL1       -0.2732
     12 C          62.8709   88.8715   10.3521 C.3     1  UNL1        0.1149
     13 C          62.6313   87.8782    9.2540 C.3     1  UNL1        0.1124
     14 N          61.5820   86.8187    9.4168 N.pl3   1  UNL1       -0.3017
     15 C          60.7722   86.7527   10.6778 C.3     1  UNL1        0.1124
     16 C          61.0118   87.7461   11.7758 C.3     1  UNL1        0.1149
     17 C          61.3423   85.8253    8.3188 C.ar    1  UNL1        0.0824
     18 C          60.0698   85.8760    7.5262 C.ar    1  UNL1        0.0176
     19 C          59.8301   84.8826    6.4282 C.ar    1  UNL1        0.0015
     20 C          60.8629   83.8386    6.1227 C.ar    1  UNL1        0.0032
     21 C          62.1354   83.7880    6.9152 C.ar    1  UNL1        0.0382
     22 C          62.3751   84.7813    8.0133 C.ar    1  UNL1        0.1517
     23 O          63.6477   84.7307    8.8058 O.3     1  UNL1       -0.4742
     24 C          63.9367   83.5508    9.6858 C.3     1  UNL1        0.2059
     25 C          63.1519   83.3463   10.9477 C.3     1  UNL1        0.0532
     26 C          62.8100   81.9580   11.4016 C.3     1  UNL1        0.0455
     27 C          62.8735   81.6086   12.8589 C.2     1  UNL1        0.0505
     28 O          61.6199   81.5957   13.6824 O.co2   1  UNL1       -0.5492
     29 O          64.1908   81.2719   13.4927 O.co2   1  UNL1       -0.5492
     30 C          66.7411   94.5240   11.1119 C.ar    1  UNL1        0.0766
     31 C          66.4207   95.9887   11.0662 C.ar    1  UNL1        0.1033
     32 N          67.0229   96.8553   10.0002 N.ar    1  UNL1       -0.2422
     33 C          67.9455   96.2572    8.9798 C.ar    1  UNL1        0.0988
     34 C          68.2659   94.7925    9.0255 C.ar    1  UNL1        0.0247
     35 C          67.6637   93.9259   10.0915 C.ar    1  UNL1        0.0788
     36 C          67.9842   92.4613   10.1371 C.3     1  UNL1        0.4188
     37 F          68.3046   90.9966   10.1828 F       1  UNL1       -0.1659
     38 F          68.3094   92.5779   11.5968 F       1  UNL1       -0.1659
     39 F          67.6590   92.3446    8.6775 F       1  UNL1       -0.1659
     40 C          64.9346   91.9241   14.3099 C.3     1  UNL1        0.0239
     41 C          67.1078   91.9469   15.7334 C.3     1  UNL1        0.0001
     42 C          66.2413   91.2969   14.6958 C.3     1  UNL1        0.0018
     43 O          63.4768   90.5899   14.0186 O.3     1  UNL1       -0.4718
     44 C          63.6949   89.1894   14.5094 C.ar    1  UNL1        0.1459
     45 C          63.3726   88.6757   15.8814 C.ar    1  UNL1        0.0722
     46 S          63.7521   87.2255   15.9343 S.2     1  UNL1       -0.0794
     47 C          64.3089   86.8429   14.5950 C.ar    1  UNL1        0.1041
     48 C          64.2735   88.0566   13.7144 C.ar    1  UNL1        0.0478
     49 C          64.8126   85.4849   14.2049 C.3     1  UNL1        0.4242
     50 F          65.3164   84.1269   13.8147 F       1  UNL1       -0.1654
     51 F          63.5344   85.2234   13.4648 F       1  UNL1       -0.1654
     52 F          66.0908   85.7464   14.9450 F       1  UNL1       -0.1654
@<TRIPOS>UNITY_ATOM_ATTR
28 1
charge -1
@<TRIPOS>BOND
     1    41    42    1
     2    42    40    1
     3     1    40    1
     4     1     2    1
     5     2     3   am
     6     3     4    2
     7     3    30    1
     8    30    31   ar
     9    31    32   ar
    10    32    33   ar
    11    33    34   ar
    12    34    35   ar
    13    35    36    1
    14    36    37    1
    15    36    38    1
    16    36    39    1
    17     2     5    1
    18     5     6    1
    19     6     7    1
    20     7     8    1
    21     8    43    1
    22    43    44    1
    23    44    45   ar
    24    45    46   ar
    25    46    47   ar
    26    47    49    1
    27    49    50    1
    28    49    51    1
    29    49    52    1
    30    47    48   ar
    31     8     9    1
    32     9    10    2
    33     9    11   am
    34    11    12    1
    35    12    13    1
    36    13    14    1
    37    14    17    1
    38    17    18   ar
    39    18    19   ar
    40    19    20   ar
    41    20    21   ar
    42    21    22   ar
    43    22    23    1
    44    23    24    1
    45    24    25    1
    46    25    26    1
    47    26    27    1
    48    27    28   ar
    49    27    29   ar
    50    14    15    1
    51    15    16    1
    52     8     1    1
    53    48    44   ar
    54    16    11    1
    55    35    30   ar
    56    22    17   ar
@<TRIPOS>MOLECULE
*****
 52 56 0 0 0
SMALL
GASTEIGER

@<TRIPOS>ATOM
      1 C          63.8603   91.7158   12.6020 C.3     1  UNL1        0.1205
      2 N          64.5994   92.3874   11.4829 N.am    1  UNL1       -0.2737
      3 C          65.6683   93.3946   11.7880 C.2     1  UNL1        0.2506
      4 O          65.9980   93.7302   13.2124 O.2     1  UNL1       -0.2699
      5 C          64.2698   92.0519   10.0585 C.3     1  UNL1        0.0939
      6 C          63.2010   91.0447    9.7533 C.3     1  UNL1        0.0257
      7 C          62.4618   90.3731   10.8724 C.3     1  UNL1        0.0525
      8 C          62.7915   90.7086   12.2968 C.3     1  UNL1        0.2170
      9 C          61.7062   89.6958   12.5122 C.2     1  UNL1        0.2636
     10 O          60.7673   89.7510   12.8023 O.2     1  UNL1       -0.2711
     11 N          61.9785   88.2412   12.2678 N.am    1  UNL1       -0.2732
     12 C          63.3362   87.7993   11.8080 C.3     1  UNL1        0.1149
     13 C          63.6086   86.3446   11.5636 C.3     1  UNL1        0.1124
     14 N          62.5234   85.3318   11.7790 N.pl3   1  UNL1       -0.3017
     15 C          61.1657   85.7737   12.2389 C.3     1  UNL1        0.1124
     16 C          60.8933   87.2283   12.4833 C.3     1  UNL1        0.1149
     17 C          62.7957   83.8772   11.5346 C.ar    1  UNL1        0.0824
     18 C          62.3987   82.8572   12.5604 C.ar    1  UNL1        0.0176
     19 C          62.6709   81.4025   12.3161 C.ar    1  UNL1        0.0015
     20 C          63.3403   80.9677   11.0461 C.ar    1  UNL1        0.0032
     21 C          63.7373   81.9877   10.0203 C.ar    1  UNL1        0.0382
     22 C          63.4650   83.4424   10.2646 C.ar    1  UNL1        0.1517
     23 O          63.8621   84.4623    9.2389 O.3     1  UNL1       -0.4742
     24 C          62.8833   84.8852    8.1838 C.3     1  UNL1        0.2059
     25 C          62.0784   86.1378    8.3663 C.3     1  UNL1        0.0532
     26 C          60.6300   86.0498    8.7463 C.3     1  UNL1        0.0455
     27 C          59.7110   87.2028    8.4706 C.2     1  UNL1        0.0505
     28 O          60.1427   88.6012    8.7993 O.co2   1  UNL1       -0.5492
     29 O          58.3602   86.9574    7.8662 O.co2   1  UNL1       -0.5492
     30 C          66.4075   94.0663   10.6689 C.ar    1  UNL1        0.0766
     31 C          65.9555   95.4065   10.1694 C.ar    1  UNL1        0.1033
     32 N          66.6948   96.0781    9.0502 N.ar    1  UNL1       -0.2422
     33 C          67.8859   95.4095    8.4306 C.ar    1  UNL1        0.0988
     34 C          68.3379   94.0693    8.9300 C.ar    1  UNL1        0.0247
     35 C          67.5988   93.3976   10.0492 C.ar    1  UNL1        0.0788
     36 C          68.0508   92.0574   10.5487 C.3     1  UNL1        0.4188
     37 F          68.5028   90.7172   11.0481 F       1  UNL1       -0.1659
     38 F          67.9045   91.4930    9.1666 F       1  UNL1       -0.1659
     39 F          68.1970   92.6218   11.9307 F       1  UNL1       -0.1659
     40 C          64.1899   92.0513   14.0263 C.3     1  UNL1        0.0239
     41 C          65.9844   92.2274   15.8968 C.3     1  UNL1        0.0001
     42 C          65.4991   91.6168   14.6155 C.3     1  UNL1        0.0018
     43 O          62.7441   90.6924   13.7959 O.3     1  UNL1       -0.4718
     44 C          63.1893   89.4728   14.5473 C.ar    1  UNL1        0.1459
     45 C          64.3285   88.5725   14.1710 C.ar    1  UNL1        0.0722
     46 S          64.4167   87.4827   15.1979 S.2     1  UNL1       -0.0794
     47 C          63.3320   87.7096   16.2089 C.ar    1  UNL1        0.1041
     48 C          62.5734   88.9396   15.8067 C.ar    1  UNL1        0.0478
     49 C          63.0546   86.8563   17.4110 C.3     1  UNL1        0.4242
     50 F          62.7771   86.0031   18.6131 F       1  UNL1       -0.1654
     51 F          63.0300   85.6360   16.5391 F       1  UNL1       -0.1654
     52 F          63.0791   88.0766   18.2828 F       1  UNL1       -0.1654
@<TRIPOS>UNITY_ATOM_ATTR
28 1
charge -1
@<TRIPOS>BOND
     1    41    42    1
     2    42    40    1
     3     1    40    1
     4     1     2    1
     5     2     3   am
     6     3     4    2
     7     3    30    1
     8    30    31   ar
     9    31    32   ar
    10    32    33   ar
    11    33    34   ar
    12    34    35   ar
    13    35    36    1
    14    36    37    1
    15    36    38    1
    16    36    39    1
    17     2     5    1
    18     5     6    1
    19     6     7    1
    20     7     8    1
    21     8    43    1
    22    43    44    1
    23    44    45   ar
    24    45    46   ar
    25    46    47   ar
    26    47    49    1
    27    49    50    1
    28    49    51    1
    29    49    52    1
    30    47    48   ar
    31     8     9    1
    32     9    10    2
    33     9    11   am
    34    11    12    1
    35    12    13    1
    36    13    14    1
    37    14    17    1
    38    17    18   ar
    39    18    19   ar
    40    19    20   ar
    41    20    21   ar
    42    21    22   ar
    43    22    23    1
    44    23    24    1
    45    24    25    1
    46    25    26    1
    47    26    27    1
    48    27    28   ar
    49    27    29   ar
    50    14    15    1
    51    15    16    1
    52     8     1    1
    53    48    44   ar
    54    16    11    1
    55    35    30   ar
    56    22    17   ar
@<TRIPOS>MOLECULE
*****
 52 56 0 0 0
SMALL
GASTEIGER

@<TRIPOS>ATOM
      1 C          63.0720   87.6558   12.5979 C.3     1  UNL1        0.1205
      2 N          63.2087   86.2181   13.0031 N.am    1  UNL1       -0.2737
      3 C          62.6209   85.1377   12.1443 C.2     1  UNL1        0.2506
      4 O          61.8965   85.4952   10.8804 O.2     1  UNL1       -0.2699
      5 C          63.9331   85.8606   14.2670 C.3     1  UNL1        0.0939
      6 C          64.5208   86.9409   15.1257 C.3     1  UNL1        0.0257
      7 C          64.3841   88.3786   14.7206 C.3     1  UNL1        0.0525
      8 C          63.6597   88.7361   13.4567 C.3     1  UNL1        0.2170
      9 C          64.0420   90.1057   13.9341 C.2     1  UNL1        0.2636
     10 O          64.0526   90.5445   14.8151 O.2     1  UNL1       -0.2711
     11 N          64.5335   91.1311   12.9558 N.am    1  UNL1       -0.2732
     12 C          64.6427   90.7867   11.4999 C.3     1  UNL1        0.1149
     13 C          65.1341   91.8120   10.5216 C.3     1  UNL1        0.1124
     14 N          65.5164   93.1816   10.9990 N.pl3   1  UNL1       -0.3017
     15 C          65.4072   93.5259   12.4549 C.3     1  UNL1        0.1124
     16 C          64.9157   92.5007   13.4333 C.3     1  UNL1        0.1149
     17 C          66.0079   94.2069   10.0207 C.ar    1  UNL1        0.0824
     18 C          65.3221   95.5373    9.9206 C.ar    1  UNL1        0.0176
     19 C          65.8134   96.5626    8.9423 C.ar    1  UNL1        0.0015
     20 C          66.9907   96.2578    8.0641 C.ar    1  UNL1        0.0032
     21 C          67.6765   94.9274    8.1642 C.ar    1  UNL1        0.0382
     22 C          67.1851   93.9021    9.1425 C.ar    1  UNL1        0.1517
     23 O          67.8709   92.5718    9.2426 O.3     1  UNL1       -0.4742
     24 C          68.8128   92.2971   10.3772 C.3     1  UNL1        0.2059
     25 C          68.3086   91.6410   11.6284 C.3     1  UNL1        0.0532
     26 C          69.1327   91.6821   12.8811 C.3     1  UNL1        0.0455
     27 C          68.4925   92.0448   14.1883 C.2     1  UNL1        0.0505
     28 O          67.4518   91.1467   14.7885 O.co2   1  UNL1       -0.5492
     29 O          68.8932   93.3057   14.8952 O.co2   1  UNL1       -0.5492
     30 C          62.7576   83.7000   12.5494 C.ar    1  UNL1        0.0766
     31 C          62.2325   83.2419   13.8777 C.ar    1  UNL1        0.1033
     32 N          62.3692   81.8040   14.2828 N.ar    1  UNL1       -0.2422
     33 C          63.0310   80.8244   13.3596 C.ar    1  UNL1        0.0988
     34 C          63.5561   81.2825   12.0313 C.ar    1  UNL1        0.0247
     35 C          63.4194   82.7203   11.6262 C.ar    1  UNL1        0.0788
     36 C          63.9446   83.1784   10.2979 C.3     1  UNL1        0.4188
     37 F          64.4697   83.6365    8.9696 F       1  UNL1       -0.1659
     38 F          65.2016   83.6587   10.9605 F       1  UNL1       -0.1659
     39 F          62.6875   82.6980    9.6353 F       1  UNL1       -0.1659
     40 C          62.3476   88.0133   11.3340 C.3     1  UNL1        0.0239
     41 C          62.0203   87.2560    8.8704 C.3     1  UNL1        0.0001
     42 C          62.9275   87.6330   10.0040 C.3     1  UNL1        0.0018
     43 O          63.0681   89.5693   12.3587 O.3     1  UNL1       -0.4718
     44 C          61.5799   89.7254   12.2543 C.ar    1  UNL1        0.1459
     45 C          60.8553   90.7018   11.3759 C.ar    1  UNL1        0.0722
     46 S          59.3826   90.5123   11.5887 S.2     1  UNL1       -0.0794
     47 C          59.1971   89.4189   12.5985 C.ar    1  UNL1        0.1041
     48 C          60.5551   88.9325   13.0099 C.ar    1  UNL1        0.0478
     49 C          57.8840   88.9024   13.1077 C.3     1  UNL1        0.4242
     50 F          56.5710   88.3858   13.6169 F       1  UNL1       -0.1654
     51 F          57.1678   89.6600   12.0294 F       1  UNL1       -0.1654
     52 F          58.6003   88.1447   14.1861 F       1  UNL1       -0.1654
@<TRIPOS>UNITY_ATOM_ATTR
28 1
charge -1
@<TRIPOS>BOND
     1    41    42    1
     2    42    40    1
     3     1    40    1
     4     1     2    1
     5     2     3   am
     6     3     4    2
     7     3    30    1
     8    30    31   ar
     9    31    32   ar
    10    32    33   ar
    11    33    34   ar
    12    34    35   ar
    13    35    36    1
    14    36    37    1
    15    36    38    1
    16    36    39    1
    17     2     5    1
    18     5     6    1
    19     6     7    1
    20     7     8    1
    21     8    43    1
    22    43    44    1
    23    44    45   ar
    24    45    46   ar
    25    46    47   ar
    26    47    49    1
    27    49    50    1
    28    49    51    1
    29    49    52    1
    30    47    48   ar
    31     8     9    1
    32     9    10    2
    33     9    11   am
    34    11    12    1
    35    12    13    1
    36    13    14    1
    37    14    17    1
    38    17    18   ar
    39    18    19   ar
    40    19    20   ar
    41    20    21   ar
    42    21    22   ar
    43    22    23    1
    44    23    24    1
    45    24    25    1
    46    25    26    1
    47    26    27    1
    48    27    28   ar
    49    27    29   ar
    50    14    15    1
    51    15    16    1
    52     8     1    1
    53    48    44   ar
    54    16    11    1
    55    35    30   ar
    56    22    17   ar
@<TRIPOS>MOLECULE
*****
 52 56 0 0 0
SMALL
GASTEIGER

@<TRIPOS>ATOM
      1 C          63.1167   87.8434   12.6310 C.3     1  UNL1        0.1205
      2 N          63.8741   89.1259   12.8087 N.am    1  UNL1       -0.2737
      3 C          64.6413   89.3747   14.0735 C.2     1  UNL1        0.2506
      4 O          64.6512   88.3410   15.1604 O.2     1  UNL1       -0.2699
      5 C          63.8642   90.1596   11.7218 C.3     1  UNL1        0.0939
      6 C          63.0970   89.9108   10.4571 C.3     1  UNL1        0.0257
      7 C          62.3397   88.6283   10.2794 C.3     1  UNL1        0.0525
      8 C          62.3495   87.5946   11.3663 C.3     1  UNL1        0.2170
      9 C          61.4810   86.9035   10.3573 C.2     1  UNL1        0.2636
     10 O          61.2506   85.9624   10.1838 O.2     1  UNL1       -0.2711
     11 N          60.7429   87.7064    9.3275 N.am    1  UNL1       -0.2732
     12 C          60.8735   89.2006    9.3066 C.3     1  UNL1        0.1149
     13 C          60.1355   90.0036    8.2768 C.3     1  UNL1        0.1124
     14 N          59.2669   89.3125    7.2679 N.pl3   1  UNL1       -0.3017
     15 C          59.1364   87.8183    7.2888 C.3     1  UNL1        0.1124
     16 C          59.8744   87.0153    8.3186 C.3     1  UNL1        0.1149
     17 C          58.5289   90.1154    6.2381 C.ar    1  UNL1        0.0824
     18 C          57.0289   90.1240    6.2275 C.ar    1  UNL1        0.0176
     19 C          56.2908   90.9269    5.1977 C.ar    1  UNL1        0.0015
     20 C          57.0526   91.7212    4.1785 C.ar    1  UNL1        0.0032
     21 C          58.5525   91.7126    4.1891 C.ar    1  UNL1        0.0382
     22 C          59.2907   90.9097    5.2189 C.ar    1  UNL1        0.1517
     23 O          60.7906   90.9010    5.2295 O.3     1  UNL1       -0.4742
     24 C          61.5524   91.6882    4.2048 C.3     1  UNL1        0.2059
     25 C          62.6921   91.0520    3.4655 C.3     1  UNL1        0.0532
     26 C          63.4906   91.8561    2.4828 C.3     1  UNL1        0.0455
     27 C          62.7916   92.7472    1.4993 C.2     1  UNL1        0.0505
     28 O          63.2478   94.1641    1.3148 O.co2   1  UNL1       -0.5492
     29 O          61.6361   92.2212    0.7002 O.co2   1  UNL1       -0.5492
     30 C          65.3987   90.6572   14.2513 C.ar    1  UNL1        0.0766
     31 C          66.5299   90.9947   13.3258 C.ar    1  UNL1        0.1033
     32 N          67.2872   92.2772   13.5036 N.ar    1  UNL1       -0.2422
     33 C          66.9133   93.2222   14.6068 C.ar    1  UNL1        0.0988
     34 C          65.7821   92.8847   15.5323 C.ar    1  UNL1        0.0247
     35 C          65.0248   91.6022   15.3545 C.ar    1  UNL1        0.0788
     36 C          63.8936   91.2648   16.2800 C.3     1  UNL1        0.4188
     37 F          62.7624   90.9273   17.2055 F       1  UNL1       -0.1659
     38 F          64.7296   91.6813   17.4537 F       1  UNL1       -0.1659
     39 F          63.0576   90.8482   15.1063 F       1  UNL1       -0.1659
     40 C          63.1266   86.8097   13.7179 C.3     1  UNL1        0.0239
     41 C          64.3217   84.8019   14.8538 C.3     1  UNL1        0.0001
     42 C          64.3809   86.0409   14.0104 C.3     1  UNL1        0.0018
     43 O          62.0577   86.3209   12.1027 O.3     1  UNL1       -0.4718
     44 C          62.6124   85.0205   11.6013 C.ar    1  UNL1        0.1459
     45 C          63.6482   84.8591   10.5284 C.ar    1  UNL1        0.0722
     46 S          63.9046   83.3922   10.3487 S.2     1  UNL1       -0.0794
     47 C          63.0272   82.6470   11.3104 C.ar    1  UNL1        0.1041
     48 C          62.2286   83.6534   12.0846 C.ar    1  UNL1        0.0478
     49 C          62.9602   81.1570   11.4701 C.3     1  UNL1        0.4242
     50 F          62.8932   79.6670   11.6298 F       1  UNL1       -0.1654
     51 F          63.1846   80.9890    9.9966 F       1  UNL1       -0.1654
     52 F          62.7358   81.3250   12.9437 F       1  UNL1       -0.1654
@<TRIPOS>UNITY_ATOM_ATTR
28 1
charge -1
@<TRIPOS>BOND
     1    41    42    1
     2    42    40    1
     3     1    40    1
     4     1     2    1
     5     2     3   am
     6     3     4    2
     7     3    30    1
     8    30    31   ar
     9    31    32   ar
    10    32    33   ar
    11    33    34   ar
    12    34    35   ar
    13    35    36    1
    14    36    37    1
    15    36    38    1
    16    36    39    1
    17     2     5    1
    18     5     6    1
    19     6     7    1
    20     7     8    1
    21     8    43    1
    22    43    44    1
    23    44    45   ar
    24    45    46   ar
    25    46    47   ar
    26    47    49    1
    27    49    50    1
    28    49    51    1
    29    49    52    1
    30    47    48   ar
    31     8     9    1
    32     9    10    2
    33     9    11   am
    34    11    12    1
    35    12    13    1
    36    13    14    1
    37    14    17    1
    38    17    18   ar
    39    18    19   ar
    40    19    20   ar
    41    20    21   ar
    42    21    22   ar
    43    22    23    1
    44    23    24    1
    45    24    25    1
    46    25    26    1
    47    26    27    1
    48    27    28   ar
    49    27    29   ar
    50    14    15    1
    51    15    16    1
    52     8     1    1
    53    48    44   ar
    54    16    11    1
    55    35    30   ar
    56    22    17   ar
@<TRIPOS>MOLECULE
*****
 52 56 0 0 0
SMALL
GASTEIGER

@<TRIPOS>ATOM
      1 C          64.0393   91.4501   12.5144 C.3     1  UNL1        0.1205
      2 N          65.1088   91.6867   13.5391 N.am    1  UNL1       -0.2737
      3 C          66.1105   92.7850   13.3379 C.2     1  UNL1        0.2506
      4 O          66.0427   93.6465   12.1118 O.2     1  UNL1       -0.2699
      5 C          65.1766   90.8252   14.7652 C.3     1  UNL1        0.0939
      6 C          64.1749   89.7270   14.9665 C.3     1  UNL1        0.0257
      7 C          63.1054   89.4903   13.9417 C.3     1  UNL1        0.0525
      8 C          63.0376   90.3519   12.7157 C.3     1  UNL1        0.2170
      9 C          61.8717   89.4433   12.4604 C.2     1  UNL1        0.2636
     10 O          60.9048   89.5873   12.3461 O.2     1  UNL1       -0.2711
     11 N          62.0877   87.9648   12.3289 N.am    1  UNL1       -0.2732
     12 C          63.4698   87.3948   12.4526 C.3     1  UNL1        0.1149
     13 C          63.6858   85.9163   12.3211 C.3     1  UNL1        0.1124
     14 N          62.5200   85.0077   12.0658 N.pl3   1  UNL1       -0.3017
     15 C          61.1380   85.5777   11.9421 C.3     1  UNL1        0.1124
     16 C          60.9219   87.0562   12.0736 C.3     1  UNL1        0.1149
     17 C          62.7360   83.5292   11.9343 C.ar    1  UNL1        0.0824
     18 C          63.2465   82.9577   10.6448 C.ar    1  UNL1        0.0176
     19 C          63.4625   81.4792   10.5132 C.ar    1  UNL1        0.0015
     20 C          63.1680   80.5722   11.6711 C.ar    1  UNL1        0.0032
     21 C          62.6575   81.1437   12.9605 C.ar    1  UNL1        0.0382
     22 C          62.4415   82.6222   13.0922 C.ar    1  UNL1        0.1517
     23 O          61.9309   83.1938   14.3816 O.3     1  UNL1       -0.4742
     24 C          62.8930   83.5606   15.4724 C.3     1  UNL1        0.2059
     25 C          63.5670   84.9007   15.4586 C.3     1  UNL1        0.0532
     26 C          63.7188   85.6769   16.7331 C.3     1  UNL1        0.0455
     27 C          62.6591   86.6548   17.1463 C.2     1  UNL1        0.0505
     28 O          63.0433   88.0376   17.5822 O.co2   1  UNL1       -0.5492
     29 O          61.2149   86.2497   17.1235 O.co2   1  UNL1       -0.5492
     30 C          67.1800   93.0216   14.3626 C.ar    1  UNL1        0.0766
     31 C          66.8837   93.8481   15.5788 C.ar    1  UNL1        0.1033
     32 N          67.9533   94.0847   16.6036 N.ar    1  UNL1       -0.2422
     33 C          69.3191   93.4949   16.4121 C.ar    1  UNL1        0.0988
     34 C          69.6154   92.6685   15.1959 C.ar    1  UNL1        0.0247
     35 C          68.5459   92.4318   14.1712 C.ar    1  UNL1        0.0788
     36 C          68.8422   91.6054   12.9549 C.3     1  UNL1        0.4188
     37 F          69.1385   90.7789   11.7387 F       1  UNL1       -0.1659
     38 F          67.3916   91.2382   12.8510 F       1  UNL1       -0.1659
     39 F          70.2929   91.9726   13.0588 F       1  UNL1       -0.1659
     40 C          63.9715   92.3116   11.2883 C.3     1  UNL1        0.0239
     41 C          66.2331   92.3582   10.0104 C.3     1  UNL1        0.0001
     42 C          64.7880   91.9617   10.0797 C.3     1  UNL1        0.0018
     43 O          62.5649   90.8978   11.4010 O.3     1  UNL1       -0.4718
     44 C          61.8296   90.0102   10.4410 C.ar    1  UNL1        0.1459
     45 C          60.4523   90.2493    9.8972 C.ar    1  UNL1        0.0722
     46 S          60.1141   89.1146    8.9764 S.2     1  UNL1       -0.0794
     47 C          61.2824   88.1742    8.9510 C.ar    1  UNL1        0.1041
     48 C          62.3427   88.7277    9.8562 C.ar    1  UNL1        0.0478
     49 C          61.3744   86.9033    8.1595 C.3     1  UNL1        0.4242
     50 F          61.4664   85.6325    7.3680 F       1  UNL1       -0.1654
     51 F          60.1211   87.2717    7.4224 F       1  UNL1       -0.1654
     52 F          62.6277   86.5349    8.8967 F       1  UNL1       -0.1654
@<TRIPOS>UNITY_ATOM_ATTR
28 1
charge -1
@<TRIPOS>BOND
     1    41    42    1
     2    42    40    1
     3     1    40    1
     4     1     2    1
     5     2     3   am
     6     3     4    2
     7     3    30    1
     8    30    31   ar
     9    31    32   ar
    10    32    33   ar
    11    33    34   ar
    12    34    35   ar
    13    35    36    1
    14    36    37    1
    15    36    38    1
    16    36    39    1
    17     2     5    1
    18     5     6    1
    19     6     7    1
    20     7     8    1
    21     8    43    1
    22    43    44    1
    23    44    45   ar
    24    45    46   ar
    25    46    47   ar
    26    47    49    1
    27    49    50    1
    28    49    51    1
    29    49    52    1
    30    47    48   ar
    31     8     9    1
    32     9    10    2
    33     9    11   am
    34    11    12    1
    35    12    13    1
    36    13    14    1
    37    14    17    1
    38    17    18   ar
    39    18    19   ar
    40    19    20   ar
    41    20    21   ar
    42    21    22   ar
    43    22    23    1
    44    23    24    1
    45    24    25    1
    46    25    26    1
    47    26    27    1
    48    27    28   ar
    49    27    29   ar
    50    14    15    1
    51    15    16    1
    52     8     1    1
    53    48    44   ar
    54    16    11    1
    55    35    30   ar
    56    22    17   ar
