@<TRIPOS>MOLECULE
*****
 19 21 0 0 0
SMALL
GASTEIGER

@<TRIPOS>ATOM
      1 N          62.3099   89.1544   10.8522 N.3     1  UNL1       -0.2724
      2 C          61.2653   89.8108    9.9990 C.3     1  UNL1        0.0724
      3 C          60.6368   88.7538    9.1402 C.3     1  UNL1        0.0210
      4 C          59.5517   88.8146    8.1063 C.3     1  UNL1        0.0017
      5 C          59.1229   87.5657    7.3949 C.3     1  UNL1        0.0001
      6 C          59.7790   86.2560    7.7173 C.3     1  UNL1        0.0004
      7 C          60.8640   86.1951    8.7512 C.3     1  UNL1        0.0054
      8 C          61.2929   87.4440    9.4626 C.3     1  UNL1        0.0349
      9 C          62.3269   87.6916   10.5207 C.3     1  UNL1        0.0761
     10 C          62.0368   86.2130    9.8887 C.ar    1  UNL1       -0.0206
     11 C          62.8850   85.4695    8.8999 C.ar    1  UNL1       -0.0033
     12 C          63.6289   84.2387    9.3259 C.ar    1  UNL1        0.0119
     13 C          63.5245   83.7513   10.7406 C.ar    1  UNL1        0.0682
     14 CL         64.2684   82.5203   11.1666 Cl      1  UNL1       -0.0814
     15 C          62.6763   84.4947   11.7294 C.ar    1  UNL1        0.0679
     16 CL         62.5719   84.0073   13.1442 Cl      1  UNL1       -0.0814
     17 C          61.9324   85.7256   11.3034 C.ar    1  UNL1        0.0080
     18 C          63.6651   89.0926   13.0679 C.3     1  UNL1        0.0188
     19 C          63.1840   89.8403   11.8599 C.3     1  UNL1        0.0721
@<TRIPOS>BOND
     1    18    19    1
     2    19     1    1
     3     1     2    1
     4     3     2    1
     5     3     4    1
     6     4     5    1
     7     5     6    1
     8     6     7    1
     9     7     8    1
    10     8    10    1
    11    10    11   ar
    12    11    12   ar
    13    12    13   ar
    14    13    14    1
    15    13    15   ar
    16    15    16    1
    17    15    17   ar
    18     8     9    1
    19     9     1    1
    20     8     3    1
    21    17    10   ar
@<TRIPOS>MOLECULE
*****
 19 21 0 0 0
SMALL
GASTEIGER

@<TRIPOS>ATOM
      1 N          66.6295   91.7557   14.3493 N.3     1  UNL1       -0.2724
      2 C          66.4401   92.3603   12.9897 C.3     1  UNL1        0.0724
      3 C          65.2107   91.7545   12.3800 C.3     1  UNL1        0.0210
      4 C          64.5370   91.9679   11.0570 C.3     1  UNL1        0.0017
      5 C          63.2929   91.2022   10.7167 C.3     1  UNL1        0.0001
      6 C          62.7225   90.2231   11.6996 C.3     1  UNL1        0.0004
      7 C          63.3962   90.0097   13.0227 C.3     1  UNL1        0.0054
      8 C          64.6403   90.7754   13.3629 C.3     1  UNL1        0.0349
      9 C          65.5171   90.7761   14.5799 C.3     1  UNL1        0.0761
     10 C          64.1887   89.8350   14.4407 C.ar    1  UNL1       -0.0206
     11 C          63.4927   90.3679   15.6579 C.ar    1  UNL1       -0.0033
     12 C          63.0411   89.4276   16.7357 C.ar    1  UNL1        0.0119
     13 C          63.2856   87.9542   16.5964 C.ar    1  UNL1        0.0682
     14 CL         62.8341   87.0138   17.6742 Cl      1  UNL1       -0.0814
     15 C          63.9816   87.4212   15.3793 C.ar    1  UNL1        0.0679
     16 CL         64.2261   85.9478   15.2400 Cl      1  UNL1       -0.0814
     17 C          64.4332   88.3616   14.3014 C.ar    1  UNL1        0.0080
     18 C          67.9917   93.4960   15.7151 C.3     1  UNL1        0.0188
     19 C          67.7367   92.0746   15.3096 C.3     1  UNL1        0.0721
@<TRIPOS>BOND
     1    18    19    1
     2    19     1    1
     3     1     2    1
     4     3     2    1
     5     3     4    1
     6     4     5    1
     7     5     6    1
     8     6     7    1
     9     7     8    1
    10     8    10    1
    11    10    11   ar
    12    11    12   ar
    13    12    13   ar
    14    13    14    1
    15    13    15   ar
    16    15    16    1
    17    15    17   ar
    18     8     9    1
    19     9     1    1
    20     8     3    1
    21    17    10   ar
@<TRIPOS>MOLECULE
*****
 19 21 0 0 0
SMALL
GASTEIGER

@<TRIPOS>ATOM
      1 N          62.5744   90.1932   11.7910 N.3     1  UNL1       -0.2724
      2 C          63.4656   91.2744   11.2555 C.3     1  UNL1        0.0724
      3 C          64.5581   91.5123   12.2555 C.3     1  UNL1        0.0210
      4 C          65.7217   92.4588   12.2647 C.3     1  UNL1        0.0017
      5 C          66.6693   92.4711   13.4274 C.3     1  UNL1        0.0001
      6 C          66.4532   91.5369   14.5809 C.3     1  UNL1        0.0004
      7 C          65.2897   90.5904   14.5717 C.3     1  UNL1        0.0054
      8 C          64.3421   90.5780   13.4090 C.3     1  UNL1        0.0349
      9 C          63.1161   89.7628   13.1219 C.3     1  UNL1        0.0761
     10 C          63.9999   89.5911   14.4855 C.ar    1  UNL1       -0.0206
     11 C          63.3130   90.0535   15.7362 C.ar    1  UNL1       -0.0033
     12 C          62.9708   89.0666   16.8126 C.ar    1  UNL1        0.0119
     13 C          63.3154   87.6172   16.6383 C.ar    1  UNL1        0.0682
     14 CL         62.9732   86.6302   17.7148 Cl      1  UNL1       -0.0814
     15 C          64.0023   87.1547   15.3877 C.ar    1  UNL1        0.0679
     16 CL         64.3470   85.7052   15.2134 Cl      1  UNL1       -0.0814
     17 C          64.3445   88.1417   14.3112 C.ar    1  UNL1        0.0080
     18 C          60.0611   90.3957   11.1649 C.3     1  UNL1        0.0188
     19 C          61.3555   89.6396   11.1144 C.3     1  UNL1        0.0721
@<TRIPOS>BOND
     1    18    19    1
     2    19     1    1
     3     1     2    1
     4     3     2    1
     5     3     4    1
     6     4     5    1
     7     5     6    1
     8     6     7    1
     9     7     8    1
    10     8    10    1
    11    10    11   ar
    12    11    12   ar
    13    12    13   ar
    14    13    14    1
    15    13    15   ar
    16    15    16    1
    17    15    17   ar
    18     8     9    1
    19     9     1    1
    20     8     3    1
    21    17    10   ar
@<TRIPOS>MOLECULE
*****
 19 21 0 0 0
SMALL
GASTEIGER

@<TRIPOS>ATOM
      1 N          63.9562   91.0842   12.4082 N.3     1  UNL1       -0.2724
      2 C          64.0385   90.8548   13.8882 C.3     1  UNL1        0.0724
      3 C          65.1655   91.6869   14.4243 C.3     1  UNL1        0.0210
      4 C          65.7118   91.8634   15.8101 C.3     1  UNL1        0.0017
      5 C          66.8724   92.7837   16.0471 C.3     1  UNL1        0.0001
      6 C          67.4866   93.5274   14.8984 C.3     1  UNL1        0.0004
      7 C          66.9403   93.3508   13.5126 C.3     1  UNL1        0.0054
      8 C          65.7798   92.4306   13.2756 C.3     1  UNL1        0.0349
      9 C          65.0324   92.0581   12.0296 C.3     1  UNL1        0.0761
     10 C          66.2877   93.1040   12.0352 C.ar    1  UNL1       -0.0206
     11 C          65.9277   94.5333   11.7568 C.ar    1  UNL1       -0.0033
     12 C          66.4356   95.2067   10.5165 C.ar    1  UNL1        0.0119
     13 C          67.3034   94.4509    9.5545 C.ar    1  UNL1        0.0682
     14 CL         67.8113   95.1243    8.3141 Cl      1  UNL1       -0.0814
     15 C          67.6634   93.0216    9.8328 C.ar    1  UNL1        0.0679
     16 CL         68.5313   92.2657    8.8708 Cl      1  UNL1       -0.0814
     17 C          67.1555   92.3482   11.0732 C.ar    1  UNL1        0.0080
     18 C          62.8209   90.9751   10.0738 C.3     1  UNL1        0.0188
     19 C          62.9707   90.4510   11.4712 C.3     1  UNL1        0.0721
@<TRIPOS>BOND
     1    18    19    1
     2    19     1    1
     3     1     2    1
     4     3     2    1
     5     3     4    1
     6     4     5    1
     7     5     6    1
     8     6     7    1
     9     7     8    1
    10     8    10    1
    11    10    11   ar
    12    11    12   ar
    13    12    13   ar
    14    13    14    1
    15    13    15   ar
    16    15    16    1
    17    15    17   ar
    18     8     9    1
    19     9     1    1
    20     8     3    1
    21    17    10   ar
@<TRIPOS>MOLECULE
*****
 19 21 0 0 0
SMALL
GASTEIGER

@<TRIPOS>ATOM
      1 N          61.8206   86.5969   10.5781 N.3     1  UNL1       -0.2724
      2 C          62.3012   87.8260   11.2911 C.3     1  UNL1        0.0724
      3 C          63.0923   87.3881   12.4879 C.3     1  UNL1        0.0210
      4 C          63.8062   88.1612   13.5569 C.3     1  UNL1        0.0017
      5 C          64.5283   87.4345   14.6525 C.3     1  UNL1        0.0001
      6 C          64.5367   85.9348   14.6791 C.3     1  UNL1        0.0004
      7 C          63.8229   85.1617   13.6102 C.3     1  UNL1        0.0054
      8 C          63.1007   85.8883   12.5146 C.3     1  UNL1        0.0349
      9 C          62.3147   85.3994   11.3342 C.3     1  UNL1        0.0761
     10 C          63.0223   84.3940   12.4105 C.ar    1  UNL1       -0.0206
     11 C          63.6820   83.6864   11.2641 C.ar    1  UNL1       -0.0033
     12 C          63.6036   82.1922   11.1599 C.ar    1  UNL1        0.0119
     13 C          62.8656   81.4054   12.2022 C.ar    1  UNL1        0.0682
     14 CL         62.7872   79.9110   12.0980 Cl      1  UNL1       -0.0814
     15 C          62.2059   82.1129   13.3486 C.ar    1  UNL1        0.0679
     16 CL         61.4679   81.3261   14.3909 Cl      1  UNL1       -0.0814
     17 C          62.2843   83.6072   13.4527 C.ar    1  UNL1        0.0080
     18 C          61.5017   85.8684    8.1047 C.3     1  UNL1        0.0188
     19 C          60.9915   86.5701    9.3283 C.3     1  UNL1        0.0721
@<TRIPOS>BOND
     1    18    19    1
     2    19     1    1
     3     1     2    1
     4     3     2    1
     5     3     4    1
     6     4     5    1
     7     5     6    1
     8     6     7    1
     9     7     8    1
    10     8    10    1
    11    10    11   ar
    12    11    12   ar
    13    12    13   ar
    14    13    14    1
    15    13    15   ar
    16    15    16    1
    17    15    17   ar
    18     8     9    1
    19     9     1    1
    20     8     3    1
    21    17    10   ar
@<TRIPOS>MOLECULE
*****
 19 21 0 0 0
SMALL
GASTEIGER

@<TRIPOS>ATOM
      1 N          61.7624   86.6848   10.6163 N.3     1  UNL1       -0.2724
      2 C          62.2840   87.9743   11.1777 C.3     1  UNL1        0.0724
      3 C          63.0649   87.6574   12.4186 C.3     1  UNL1        0.0210
      4 C          63.8064   88.5295   13.3879 C.3     1  UNL1        0.0017
      5 C          64.5088   87.9163   14.5628 C.3     1  UNL1        0.0001
      6 C          64.4697   86.4310   14.7684 C.3     1  UNL1        0.0004
      7 C          63.7282   85.5589   13.7992 C.3     1  UNL1        0.0054
      8 C          63.0258   86.1721   12.6242 C.3     1  UNL1        0.0349
      9 C          62.2208   85.5710   11.5104 C.3     1  UNL1        0.0761
     10 C          62.8998   84.6793   12.6994 C.ar    1  UNL1       -0.0206
     11 C          62.3894   84.0318   13.9524 C.ar    1  UNL1       -0.0033
     12 C          62.2634   82.5391   14.0275 C.ar    1  UNL1        0.0119
     13 C          62.6478   81.6937   12.8495 C.ar    1  UNL1        0.0682
     14 CL         62.5218   80.2009   12.9246 Cl      1  UNL1       -0.0814
     15 C          63.1582   82.3411   11.5965 C.ar    1  UNL1        0.0679
     16 CL         63.5426   81.4958   10.4184 Cl      1  UNL1       -0.0814
     17 C          63.2842   83.8340   11.5214 C.ar    1  UNL1        0.0080
     18 C          61.5142   85.9005    8.1519 C.3     1  UNL1        0.0188
     19 C          60.9287   86.5353    9.3783 C.3     1  UNL1        0.0721
@<TRIPOS>BOND
     1    18    19    1
     2    19     1    1
     3     1     2    1
     4     3     2    1
     5     3     4    1
     6     4     5    1
     7     5     6    1
     8     6     7    1
     9     7     8    1
    10     8    10    1
    11    10    11   ar
    12    11    12   ar
    13    12    13   ar
    14    13    14    1
    15    13    15   ar
    16    15    16    1
    17    15    17   ar
    18     8     9    1
    19     9     1    1
    20     8     3    1
    21    17    10   ar
@<TRIPOS>MOLECULE
*****
 19 21 0 0 0
SMALL
GASTEIGER

@<TRIPOS>ATOM
      1 N          63.6206   90.2826   15.2254 N.3     1  UNL1       -0.2724
      2 C          64.7180   91.3050   15.2039 C.3     1  UNL1        0.0724
      3 C          64.9394   91.7175   13.7788 C.3     1  UNL1        0.0210
      4 C          65.8915   92.6928   13.1526 C.3     1  UNL1        0.0017
      5 C          65.8831   92.9006   11.6671 C.3     1  UNL1        0.0001
      6 C          64.9225   92.1332   10.8079 C.3     1  UNL1        0.0004
      7 C          63.9703   91.1579   11.4341 C.3     1  UNL1        0.0054
      8 C          63.9787   90.9501   12.9196 C.3     1  UNL1        0.0349
      9 C          63.1637   90.0633   13.8136 C.3     1  UNL1        0.0761
     10 C          62.9664   90.1155   12.1925 C.ar    1  UNL1       -0.0206
     11 C          61.7523   90.7616   11.5939 C.ar    1  UNL1       -0.0033
     12 C          60.7400   89.9271   10.8668 C.ar    1  UNL1        0.0119
     13 C          60.9419   88.4463   10.7383 C.ar    1  UNL1        0.0682
     14 CL         59.9295   87.6117   10.0112 Cl      1  UNL1       -0.0814
     15 C          62.1559   87.8001   11.3368 C.ar    1  UNL1        0.0679
     16 CL         62.3578   86.3192   11.2083 Cl      1  UNL1       -0.0814
     17 C          63.1683   88.6347   12.0639 C.ar    1  UNL1        0.0080
     18 C          63.2171   88.1142   16.5984 C.3     1  UNL1        0.0188
     19 C          63.0757   89.5995   16.4446 C.3     1  UNL1        0.0721
@<TRIPOS>BOND
     1    18    19    1
     2    19     1    1
     3     1     2    1
     4     3     2    1
     5     3     4    1
     6     4     5    1
     7     5     6    1
     8     6     7    1
     9     7     8    1
    10     8    10    1
    11    10    11   ar
    12    11    12   ar
    13    12    13   ar
    14    13    14    1
    15    13    15   ar
    16    15    16    1
    17    15    17   ar
    18     8     9    1
    19     9     1    1
    20     8     3    1
    21    17    10   ar
@<TRIPOS>MOLECULE
*****
 19 21 0 0 0
SMALL
GASTEIGER

@<TRIPOS>ATOM
      1 N          62.9838   88.6972   12.2046 N.3     1  UNL1       -0.2724
      2 C          62.1813   89.4987   11.2230 C.3     1  UNL1        0.0724
      3 C          61.5120   88.5423   10.2810 C.3     1  UNL1        0.0210
      4 C          60.5986   88.7596    9.1112 C.3     1  UNL1        0.0017
      5 C          60.0742   87.5844    8.3407 C.3     1  UNL1        0.0001
      6 C          60.4631   86.1918    8.7401 C.3     1  UNL1        0.0004
      7 C          61.3764   85.9745    9.9099 C.3     1  UNL1        0.0054
      8 C          61.9008   87.1497   10.6804 C.3     1  UNL1        0.0349
      9 C          62.8105   87.2455   11.8692 C.3     1  UNL1        0.0761
     10 C          62.3744   85.8226   11.1946 C.ar    1  UNL1       -0.0206
     11 C          62.1201   85.4372   12.6218 C.ar    1  UNL1       -0.0033
     12 C          62.5936   84.1101   13.1360 C.ar    1  UNL1        0.0119
     13 C          63.3214   83.1684   12.2232 C.ar    1  UNL1        0.0682
     14 CL         63.7950   81.8412   12.7374 Cl      1  UNL1       -0.0814
     15 C          63.5757   83.5537   10.7961 C.ar    1  UNL1        0.0679
     16 CL         64.3036   82.6119    9.8831 Cl      1  UNL1       -0.0814
     17 C          63.1022   84.8809   10.2818 C.ar    1  UNL1        0.0080
     18 C          64.2857   88.3470   14.4255 C.3     1  UNL1        0.0188
     19 C          63.8140   89.2502   13.3249 C.3     1  UNL1        0.0721
@<TRIPOS>BOND
     1    18    19    1
     2    19     1    1
     3     1     2    1
     4     3     2    1
     5     3     4    1
     6     4     5    1
     7     5     6    1
     8     6     7    1
     9     7     8    1
    10     8    10    1
    11    10    11   ar
    12    11    12   ar
    13    12    13   ar
    14    13    14    1
    15    13    15   ar
    16    15    16    1
    17    15    17   ar
    18     8     9    1
    19     9     1    1
    20     8     3    1
    21    17    10   ar
@<TRIPOS>MOLECULE
*****
 19 21 0 0 0
SMALL
GASTEIGER

@<TRIPOS>ATOM
      1 N          63.3037   86.2370   13.1783 N.3     1  UNL1       -0.2724
      2 C          63.9307   87.4319   13.8334 C.3     1  UNL1        0.0724
      3 C          63.6456   88.6316   12.9795 C.3     1  UNL1        0.0210
      4 C          64.0136   90.0783   13.1262 C.3     1  UNL1        0.0017
      5 C          63.5783   91.0717   12.0900 C.3     1  UNL1        0.0001
      6 C          62.7750   90.6184   10.9071 C.3     1  UNL1        0.0004
      7 C          62.4070   89.1717   10.7604 C.3     1  UNL1        0.0054
      8 C          62.8422   88.1783   11.7966 C.3     1  UNL1        0.0349
      9 C          62.6309   86.6984   11.9195 C.3     1  UNL1        0.0761
     10 C          62.0474   87.5802   10.6739 C.ar    1  UNL1       -0.0206
     11 C          60.5887   87.9004   10.5340 C.ar    1  UNL1       -0.0033
     12 C          59.7939   87.3023    9.4113 C.ar    1  UNL1        0.0119
     13 C          60.4577   86.3840    8.4285 C.ar    1  UNL1        0.0682
     14 CL         59.6628   85.7859    7.3058 Cl      1  UNL1       -0.0814
     15 C          61.9163   86.0637    8.5684 C.ar    1  UNL1        0.0679
     16 CL         62.5803   85.1453    7.5856 Cl      1  UNL1       -0.0814
     17 C          62.7112   86.6618    9.6911 C.ar    1  UNL1        0.0080
     18 C          64.2524   83.8216   13.0525 C.3     1  UNL1        0.0188
     19 C          63.3425   84.8282   13.6919 C.3     1  UNL1        0.0721
@<TRIPOS>BOND
     1    18    19    1
     2    19     1    1
     3     1     2    1
     4     3     2    1
     5     3     4    1
     6     4     5    1
     7     5     6    1
     8     6     7    1
     9     7     8    1
    10     8    10    1
    11    10    11   ar
    12    11    12   ar
    13    12    13   ar
    14    13    14    1
    15    13    15   ar
    16    15    16    1
    17    15    17   ar
    18     8     9    1
    19     9     1    1
    20     8     3    1
    21    17    10   ar
