@<TRIPOS>MOLECULE
*****
 28 32 0 0 0
SMALL
GASTEIGER

@<TRIPOS>ATOM
      1 C          64.6280   90.0365   14.1290 C.ar    1  UNL1        0.0593
      2 C          63.8486   90.4475   12.9150 C.ar    1  UNL1        0.0152
      3 C          64.3008   91.6191   12.0947 C.ar    1  UNL1        0.0035
      4 C          65.5322   92.3797   12.4883 C.ar    1  UNL1        0.0277
      5 C          66.3116   91.9687   13.7023 C.ar    1  UNL1        0.1413
      6 F          67.5431   92.7293   14.0960 F       1  UNL1       -0.2041
      7 C          65.8594   90.7971   14.5226 C.ar    1  UNL1        0.0446
      8 C          65.9844   93.5513   11.6680 C.ar    1  UNL1        0.0068
      9 C          66.0744   94.9129   12.2908 C.ar    1  UNL1        0.0209
     10 C          66.5267   96.0845   11.4704 C.ar    1  UNL1        0.1021
     11 N          66.8888   95.8944   10.0273 N.ar    1  UNL1       -0.2092
     12 N          67.3638   96.8542    8.9769 N.ar    1  UNL1       -0.1409
     13 C          67.5673   96.0857    7.7049 C.ar    1  UNL1        0.2213
     14 N          67.2181   94.6510    7.9691 N.ar    1  UNL1       -0.2034
     15 C          66.7988   94.5328    9.4045 C.ar    1  UNL1        0.1656
     16 C          66.3466   93.3612   10.2248 C.ar    1  UNL1        0.0390
     17 O          62.8622   90.1810   16.8695 O.2     1  UNL1       -0.2258
     18 C          63.3642   88.9313   16.2090 C.2     1  UNL1        0.4088
     19 O          63.1427   87.5287   16.6922 O.3     1  UNL1       -0.4342
     20 C          63.8174   86.5954   15.7311 C.3     1  UNL1        0.2149
     21 C          64.4560   87.4212   14.6539 C.3     1  UNL1        0.1471
     22 N          64.1758   88.8649   14.9493 N.am    1  UNL1       -0.2212
     23 C          63.8483   85.0989   15.8299 C.3     1  UNL1        0.1745
     24 N          63.6124   84.2616   14.6079 N.ar    1  UNL1       -0.2264
     25 C          62.4113   83.4020   14.3466 C.ar    1  UNL1        0.1193
     26 C          62.5928   82.7461   13.0099 C.ar    1  UNL1        0.1441
     27 N          63.9061   83.2003   12.4452 N.ar    1  UNL1       -0.1271
     28 N          64.5362   84.1370   13.4328 N.ar    1  UNL1       -0.0636
@<TRIPOS>BOND
     1    17    18    2
     2    18    19    1
     3    19    20    1
     4    20    23    1
     5    23    24    1
     6    24    25   ar
     7    25    26   ar
     8    26    27   ar
     9    27    28   ar
    10    20    21    1
    11    21    22    1
    12    22     1    1
    13     1     2   ar
    14     2     3   ar
    15     3     4   ar
    16     4     8    1
    17     8     9   ar
    18     9    10   ar
    19    10    11   ar
    20    11    12   ar
    21    12    13   ar
    22    13    14   ar
    23    14    15   ar
    24    15    16   ar
    25     4     5   ar
    26     5     6    1
    27     5     7   ar
    28    22    18   am
    29     7     1   ar
    30    28    24   ar
    31    16     8   ar
    32    15    11   ar
@<TRIPOS>MOLECULE
*****
 28 32 0 0 0
SMALL
GASTEIGER

@<TRIPOS>ATOM
      1 C          64.3358   88.6392   14.2234 C.ar    1  UNL1        0.0593
      2 C          64.7674   87.5651   15.1773 C.ar    1  UNL1        0.0152
      3 C          64.4718   86.1267   14.8707 C.ar    1  UNL1        0.0035
      4 C          63.7448   85.7627   13.6103 C.ar    1  UNL1        0.0277
      5 C          63.3132   86.8368   12.6564 C.ar    1  UNL1        0.1413
      6 F          62.5861   86.4727   11.3959 F       1  UNL1       -0.2041
      7 C          63.6087   88.2751   12.9629 C.ar    1  UNL1        0.0446
      8 C          63.4492   84.3243   13.3037 C.ar    1  UNL1        0.0068
      9 C          64.1386   83.6447   12.1580 C.ar    1  UNL1        0.0209
     10 C          63.8430   82.2064   11.8514 C.ar    1  UNL1        0.1021
     11 N          62.8580   81.4478   12.6905 N.ar    1  UNL1       -0.2092
     12 N          62.3678   80.0315   12.6289 N.ar    1  UNL1       -0.1409
     13 C          61.3755   79.8358   13.7366 C.ar    1  UNL1        0.2213
     14 N          61.2523   81.1312   14.4828 N.ar    1  UNL1       -0.2034
     15 C          62.1685   82.1275   13.8363 C.ar    1  UNL1        0.1656
     16 C          62.4641   83.5658   14.1428 C.ar    1  UNL1        0.0390
     17 O          63.1879   90.3339   16.7650 O.2     1  UNL1       -0.2258
     18 C          64.1037   90.8564   15.6982 C.2     1  UNL1        0.4088
     19 O          64.6527   92.2497   15.6124 O.3     1  UNL1       -0.4342
     20 C          65.5197   92.3319   14.3911 C.3     1  UNL1        0.2149
     21 C          65.5065   90.9893   13.7221 C.3     1  UNL1        0.1471
     22 N          64.6314   90.0775   14.5300 N.am    1  UNL1       -0.2212
     23 C          66.2684   93.5438   13.9212 C.3     1  UNL1        0.1745
     24 N          66.6437   93.6796   12.4753 N.ar    1  UNL1       -0.2264
     25 C          66.2165   94.7831   11.5535 C.ar    1  UNL1        0.1193
     26 C          66.8209   94.5213   10.2058 C.ar    1  UNL1        0.1441
     27 N          67.6216   93.2560   10.2948 N.ar    1  UNL1       -0.1271
     28 N          67.5121   92.7358   11.6974 N.ar    1  UNL1       -0.0636
@<TRIPOS>BOND
     1    17    18    2
     2    18    19    1
     3    19    20    1
     4    20    23    1
     5    23    24    1
     6    24    25   ar
     7    25    26   ar
     8    26    27   ar
     9    27    28   ar
    10    20    21    1
    11    21    22    1
    12    22     1    1
    13     1     2   ar
    14     2     3   ar
    15     3     4   ar
    16     4     8    1
    17     8     9   ar
    18     9    10   ar
    19    10    11   ar
    20    11    12   ar
    21    12    13   ar
    22    13    14   ar
    23    14    15   ar
    24    15    16   ar
    25     4     5   ar
    26     5     6    1
    27     5     7   ar
    28    22    18   am
    29     7     1   ar
    30    28    24   ar
    31    16     8   ar
    32    15    11   ar
@<TRIPOS>MOLECULE
*****
 28 32 0 0 0
SMALL
GASTEIGER

@<TRIPOS>ATOM
      1 C          64.2897   88.6369   14.2129 C.ar    1  UNL1        0.0593
      2 C          64.6907   87.5490   15.1645 C.ar    1  UNL1        0.0152
      3 C          64.3658   86.1190   14.8488 C.ar    1  UNL1        0.0035
      4 C          63.6399   85.7769   13.5816 C.ar    1  UNL1        0.0277
      5 C          63.2389   86.8648   12.6300 C.ar    1  UNL1        0.1413
      6 F          62.5129   86.5228   11.3627 F       1  UNL1       -0.2041
      7 C          63.5637   88.2948   12.9456 C.ar    1  UNL1        0.0446
      8 C          63.3150   84.3469   13.2659 C.ar    1  UNL1        0.0068
      9 C          62.6526   83.4829   14.2976 C.ar    1  UNL1        0.0209
     10 C          62.3277   82.0529   13.9819 C.ar    1  UNL1        0.1021
     11 N          62.6653   81.4870   12.6344 N.ar    1  UNL1       -0.2092
     12 N          62.4676   80.1241   12.0400 N.ar    1  UNL1       -0.1409
     13 C          63.0079   80.1459   10.6409 C.ar    1  UNL1        0.2213
     14 N          63.5395   81.5222   10.3706 N.ar    1  UNL1       -0.2034
     15 C          63.3278   82.3511   11.6027 C.ar    1  UNL1        0.1656
     16 C          63.6527   83.7810   11.9184 C.ar    1  UNL1        0.0390
     17 O          63.1430   90.3513   16.7419 O.2     1  UNL1       -0.2258
     18 C          64.0874   90.8549   15.6910 C.2     1  UNL1        0.4088
     19 O          64.6707   92.2349   15.6180 O.3     1  UNL1       -0.4342
     20 C          65.5582   92.2998   14.4105 C.3     1  UNL1        0.2149
     21 C          65.5235   90.9598   13.7371 C.3     1  UNL1        0.1471
     22 N          64.6145   90.0668   14.5285 N.am    1  UNL1       -0.2212
     23 C          66.3427   93.4948   13.9561 C.3     1  UNL1        0.1745
     24 N          66.6657   93.6712   12.5020 N.ar    1  UNL1       -0.2264
     25 C          66.1921   94.7908   11.6232 C.ar    1  UNL1        0.1193
     26 C          66.7528   94.5705   10.2494 C.ar    1  UNL1        0.1441
     27 N          67.5728   93.3149   10.2792 N.ar    1  UNL1       -0.1271
     28 N          67.5190   92.7591   11.6714 N.ar    1  UNL1       -0.0636
@<TRIPOS>BOND
     1    17    18    2
     2    18    19    1
     3    19    20    1
     4    20    23    1
     5    23    24    1
     6    24    25   ar
     7    25    26   ar
     8    26    27   ar
     9    27    28   ar
    10    20    21    1
    11    21    22    1
    12    22     1    1
    13     1     2   ar
    14     2     3   ar
    15     3     4   ar
    16     4     8    1
    17     8     9   ar
    18     9    10   ar
    19    10    11   ar
    20    11    12   ar
    21    12    13   ar
    22    13    14   ar
    23    14    15   ar
    24    15    16   ar
    25     4     5   ar
    26     5     6    1
    27     5     7   ar
    28    22    18   am
    29     7     1   ar
    30    28    24   ar
    31    16     8   ar
    32    15    11   ar
@<TRIPOS>MOLECULE
*****
 28 32 0 0 0
SMALL
GASTEIGER

@<TRIPOS>ATOM
      1 C          62.3272   89.4587   10.5943 C.ar    1  UNL1        0.0593
      2 C          62.5685   88.7522   11.8953 C.ar    1  UNL1        0.0152
      3 C          63.4529   89.3753   12.9344 C.ar    1  UNL1        0.0035
      4 C          64.0959   90.7049   12.6725 C.ar    1  UNL1        0.0277
      5 C          63.8547   91.4114   11.3715 C.ar    1  UNL1        0.1413
      6 F          64.4978   92.7410   11.1095 F       1  UNL1       -0.2041
      7 C          62.9704   90.7883   10.3324 C.ar    1  UNL1        0.0446
      8 C          64.9803   91.3280   13.7116 C.ar    1  UNL1        0.0068
      9 C          64.4647   91.5445   15.1033 C.ar    1  UNL1        0.0209
     10 C          65.3491   92.1677   16.1424 C.ar    1  UNL1        0.1021
     11 N          66.7492   92.5742   15.7896 N.ar    1  UNL1       -0.2092
     12 N          67.8442   93.2065   16.5965 N.ar    1  UNL1       -0.1409
     13 C          69.0366   93.3807   15.7034 C.ar    1  UNL1        0.2213
     14 N          68.6786   92.8561   14.3445 N.ar    1  UNL1       -0.2034
     15 C          67.2648   92.3576   14.3978 C.ar    1  UNL1        0.1656
     16 C          66.3804   91.7345   13.3588 C.ar    1  UNL1        0.0390
     17 O          62.3422   86.3223    9.6932 O.2     1  UNL1       -0.2258
     18 C          61.4498   87.3940    9.1410 C.2     1  UNL1        0.4088
     19 O          60.4075   87.2122    8.0777 O.3     1  UNL1       -0.4342
     20 C          59.7565   88.5416    7.8347 C.3     1  UNL1        0.2149
     21 C          60.3964   89.5450    8.7479 C.3     1  UNL1        0.1471
     22 N          61.4429   88.8357    9.5552 N.am    1  UNL1       -0.2212
     23 C          58.6584   88.8189    6.8512 C.3     1  UNL1        0.1745
     24 N          58.7172   90.0434    5.9870 N.ar    1  UNL1       -0.2264
     25 C          59.9567   90.6464    5.3955 C.ar    1  UNL1        0.1193
     26 C          59.5524   91.8556    4.6054 C.ar    1  UNL1        0.1441
     27 N          58.0629   92.0000    4.7086 N.ar    1  UNL1       -0.1271
     28 N          57.5467   90.8799    5.5625 N.ar    1  UNL1       -0.0636
@<TRIPOS>BOND
     1    17    18    2
     2    18    19    1
     3    19    20    1
     4    20    23    1
     5    23    24    1
     6    24    25   ar
     7    25    26   ar
     8    26    27   ar
     9    27    28   ar
    10    20    21    1
    11    21    22    1
    12    22     1    1
    13     1     2   ar
    14     2     3   ar
    15     3     4   ar
    16     4     8    1
    17     8     9   ar
    18     9    10   ar
    19    10    11   ar
    20    11    12   ar
    21    12    13   ar
    22    13    14   ar
    23    14    15   ar
    24    15    16   ar
    25     4     5   ar
    26     5     6    1
    27     5     7   ar
    28    22    18   am
    29     7     1   ar
    30    28    24   ar
    31    16     8   ar
    32    15    11   ar
@<TRIPOS>MOLECULE
*****
 28 32 0 0 0
SMALL
GASTEIGER

@<TRIPOS>ATOM
      1 C          63.8249   87.6990   13.9584 C.ar    1  UNL1        0.0593
      2 C          64.3056   86.6410   14.9068 C.ar    1  UNL1        0.0152
      3 C          64.0878   85.1918   14.5866 C.ar    1  UNL1        0.0035
      4 C          63.3893   84.8007   13.3182 C.ar    1  UNL1        0.0277
      5 C          62.9086   85.8587   12.3698 C.ar    1  UNL1        0.1413
      6 F          62.2101   85.4676   11.1012 F       1  UNL1       -0.2041
      7 C          63.1264   87.3078   12.6898 C.ar    1  UNL1        0.0446
      8 C          63.1715   83.3514   12.9980 C.ar    1  UNL1        0.0068
      9 C          62.8207   82.3863   14.0913 C.ar    1  UNL1        0.0209
     10 C          62.6029   80.9371   13.7711 C.ar    1  UNL1        0.1021
     11 N          62.7360   80.4532   12.3576 N.ar    1  UNL1       -0.2092
     12 N          62.5810   79.0934   11.7435 N.ar    1  UNL1       -0.1409
     13 C          62.8361   79.2183   10.2707 C.ar    1  UNL1        0.2213
     14 N          63.1487   80.6551    9.9745 N.ar    1  UNL1       -0.2034
     15 C          63.0868   81.4184   11.2643 C.ar    1  UNL1        0.1656
     16 C          63.3046   82.8675   11.5845 C.ar    1  UNL1        0.0390
     17 O          62.2623   89.4120   16.2548 O.2     1  UNL1       -0.2258
     18 C          63.3244   89.9356   15.3340 C.2     1  UNL1        0.4088
     19 O          63.8548   91.3384   15.3071 O.3     1  UNL1       -0.4342
     20 C          64.9007   91.4180   14.2349 C.3     1  UNL1        0.2149
     21 C          65.0169   90.0644   13.5992 C.3     1  UNL1        0.1471
     22 N          64.0426   89.1482   14.2785 N.am    1  UNL1       -0.2212
     23 C          65.6917   92.6373   13.8637 C.3     1  UNL1        0.1745
     24 N          67.0914   92.8078   14.3755 N.ar    1  UNL1       -0.2264
     25 C          67.4807   93.4012   15.6969 C.ar    1  UNL1        0.1193
     26 C          68.9774   93.3750   15.7938 C.ar    1  UNL1        0.1441
     27 N          69.5129   92.7654   14.5322 N.ar    1  UNL1       -0.1271
     28 N          68.3473   92.4148   13.6556 N.ar    1  UNL1       -0.0636
@<TRIPOS>BOND
     1    17    18    2
     2    18    19    1
     3    19    20    1
     4    20    23    1
     5    23    24    1
     6    24    25   ar
     7    25    26   ar
     8    26    27   ar
     9    27    28   ar
    10    20    21    1
    11    21    22    1
    12    22     1    1
    13     1     2   ar
    14     2     3   ar
    15     3     4   ar
    16     4     8    1
    17     8     9   ar
    18     9    10   ar
    19    10    11   ar
    20    11    12   ar
    21    12    13   ar
    22    13    14   ar
    23    14    15   ar
    24    15    16   ar
    25     4     5   ar
    26     5     6    1
    27     5     7   ar
    28    22    18   am
    29     7     1   ar
    30    28    24   ar
    31    16     8   ar
    32    15    11   ar
@<TRIPOS>MOLECULE
*****
 28 32 0 0 0
SMALL
GASTEIGER

@<TRIPOS>ATOM
      1 C          63.8579   87.2021   14.1156 C.ar    1  UNL1        0.0593
      2 C          63.1463   86.9016   12.8298 C.ar    1  UNL1        0.0152
      3 C          62.9175   85.4786   12.4140 C.ar    1  UNL1        0.0035
      4 C          63.4002   84.3562   13.2841 C.ar    1  UNL1        0.0277
      5 C          64.1118   84.6567   14.5699 C.ar    1  UNL1        0.1413
      6 F          64.5946   83.5343   15.4400 F       1  UNL1       -0.2041
      7 C          64.3407   86.0796   14.9856 C.ar    1  UNL1        0.0446
      8 C          63.1714   82.9332   12.8684 C.ar    1  UNL1        0.0068
      9 C          62.7535   81.9128   13.8851 C.ar    1  UNL1        0.0209
     10 C          62.5247   80.4897   13.4694 C.ar    1  UNL1        0.1021
     11 N          62.7138   80.0873   12.0368 N.ar    1  UNL1       -0.2092
     12 N          62.5629   78.7696   11.3362 N.ar    1  UNL1       -0.1409
     13 C          62.8876   78.9758    9.8863 C.ar    1  UNL1        0.2213
     14 N          63.2392   80.4209    9.6909 N.ar    1  UNL1       -0.2034
     15 C          63.1318   81.1078   11.0200 C.ar    1  UNL1        0.1656
     16 C          63.3606   82.5308   11.4358 C.ar    1  UNL1        0.0390
     17 O          62.7766   88.5959   16.8611 O.2     1  UNL1       -0.2258
     18 C          63.5897   89.2657   15.7933 C.2     1  UNL1        0.4088
     19 O          64.0486   90.6937   15.8000 O.3     1  UNL1       -0.4342
     20 C          64.8292   90.9357   14.5422 C.3     1  UNL1        0.2149
     21 C          64.8528   89.6571   13.7581 C.3     1  UNL1        0.1471
     22 N          64.0868   88.6250   14.5313 N.am    1  UNL1       -0.2212
     23 C          65.4732   92.2291   14.1392 C.3     1  UNL1        0.1745
     24 N          66.8889   92.5192   14.5410 N.ar    1  UNL1       -0.2264
     25 C          67.3398   93.0233   15.8798 C.ar    1  UNL1        0.1193
     26 C          68.8319   93.1718   15.8407 C.ar    1  UNL1        0.1441
     27 N          69.3032   92.7594   14.4777 N.ar    1  UNL1       -0.1271
     28 N          68.1023   92.3561   13.6744 N.ar    1  UNL1       -0.0636
@<TRIPOS>BOND
     1    17    18    2
     2    18    19    1
     3    19    20    1
     4    20    23    1
     5    23    24    1
     6    24    25   ar
     7    25    26   ar
     8    26    27   ar
     9    27    28   ar
    10    20    21    1
    11    21    22    1
    12    22     1    1
    13     1     2   ar
    14     2     3   ar
    15     3     4   ar
    16     4     8    1
    17     8     9   ar
    18     9    10   ar
    19    10    11   ar
    20    11    12   ar
    21    12    13   ar
    22    13    14   ar
    23    14    15   ar
    24    15    16   ar
    25     4     5   ar
    26     5     6    1
    27     5     7   ar
    28    22    18   am
    29     7     1   ar
    30    28    24   ar
    31    16     8   ar
    32    15    11   ar
@<TRIPOS>MOLECULE
*****
 28 32 0 0 0
SMALL
GASTEIGER

@<TRIPOS>ATOM
      1 C          63.2392   89.4529   13.1521 C.ar    1  UNL1        0.0593
      2 C          63.4211   87.9643   13.1224 C.ar    1  UNL1        0.0152
      3 C          62.9261   87.1714   11.9491 C.ar    1  UNL1        0.0035
      4 C          62.2493   87.8672   10.8057 C.ar    1  UNL1        0.0277
      5 C          62.0673   89.3558   10.8353 C.ar    1  UNL1        0.1413
      6 F          61.3904   90.0517    9.6918 F       1  UNL1       -0.2041
      7 C          62.5623   90.1487   12.0085 C.ar    1  UNL1        0.0446
      8 C          61.7543   87.0744    9.6324 C.ar    1  UNL1        0.0068
      9 C          60.3022   87.1148    9.2588 C.ar    1  UNL1        0.0209
     10 C          59.8072   86.3220    8.0855 C.ar    1  UNL1        0.1021
     11 N          60.7645   85.4888    7.2859 N.ar    1  UNL1       -0.2092
     12 N          60.5695   84.6084    6.0872 N.ar    1  UNL1       -0.1409
     13 C          61.9013   84.0239    5.7199 C.ar    1  UNL1        0.2213
     14 N          62.9192   84.5430    6.6917 N.ar    1  UNL1       -0.2034
     15 C          62.2166   85.4484    7.6595 C.ar    1  UNL1        0.1656
     16 C          62.7115   86.2412    8.8328 C.ar    1  UNL1        0.0390
     17 O          62.0932   89.2830   16.2029 O.2     1  UNL1       -0.2258
     18 C          63.2074   90.1676   15.7276 C.2     1  UNL1        0.4088
     19 O          63.9904   91.1295   16.5711 O.3     1  UNL1       -0.4342
     20 C          65.0012   91.8020   15.6902 C.3     1  UNL1        0.2149
     21 C          64.8428   91.2558   14.3021 C.3     1  UNL1        0.1471
     22 N          63.7341   90.2457   14.3253 N.am    1  UNL1       -0.2212
     23 C          65.9957   92.8388   16.1215 C.3     1  UNL1        0.1745
     24 N          67.3808   92.8347   15.5459 N.ar    1  UNL1       -0.2264
     25 C          68.5652   93.5748   16.0932 C.ar    1  UNL1        0.1193
     26 C          69.7411   93.2872   15.2074 C.ar    1  UNL1        0.1441
     27 N          69.2835   92.3695   14.1128 N.ar    1  UNL1       -0.1271
     28 N          67.8247   92.0898   14.3220 N.ar    1  UNL1       -0.0636
@<TRIPOS>BOND
     1    17    18    2
     2    18    19    1
     3    19    20    1
     4    20    23    1
     5    23    24    1
     6    24    25   ar
     7    25    26   ar
     8    26    27   ar
     9    27    28   ar
    10    20    21    1
    11    21    22    1
    12    22     1    1
    13     1     2   ar
    14     2     3   ar
    15     3     4   ar
    16     4     8    1
    17     8     9   ar
    18     9    10   ar
    19    10    11   ar
    20    11    12   ar
    21    12    13   ar
    22    13    14   ar
    23    14    15   ar
    24    15    16   ar
    25     4     5   ar
    26     5     6    1
    27     5     7   ar
    28    22    18   am
    29     7     1   ar
    30    28    24   ar
    31    16     8   ar
    32    15    11   ar
@<TRIPOS>MOLECULE
*****
 28 32 0 0 0
SMALL
GASTEIGER

@<TRIPOS>ATOM
      1 C          64.6485   89.9742   13.6713 C.ar    1  UNL1        0.0593
      2 C          65.0651   89.1856   14.8774 C.ar    1  UNL1        0.0152
      3 C          64.6415   87.7537   15.0201 C.ar    1  UNL1        0.0035
      4 C          63.8014   87.1106   13.9570 C.ar    1  UNL1        0.0277
      5 C          63.3848   87.8992   12.7509 C.ar    1  UNL1        0.1413
      6 F          62.5446   87.2560   11.6877 F       1  UNL1       -0.2041
      7 C          63.8083   89.3310   12.6081 C.ar    1  UNL1        0.0446
      8 C          63.3778   85.6786   14.0997 C.ar    1  UNL1        0.0068
      9 C          63.0078   85.1369   15.4486 C.ar    1  UNL1        0.0209
     10 C          62.5843   83.7050   15.5913 C.ar    1  UNL1        0.1021
     11 N          62.5307   82.8149   14.3851 N.ar    1  UNL1       -0.2092
     12 N          62.1543   81.3726   14.2180 N.ar    1  UNL1       -0.1409
     13 C          62.2918   81.0230   12.7659 C.ar    1  UNL1        0.2213
     14 N          62.7530   82.2492   12.0354 N.ar    1  UNL1       -0.2034
     15 C          62.9007   83.3568   13.0362 C.ar    1  UNL1        0.1656
     16 C          63.3242   84.7886   12.8935 C.ar    1  UNL1        0.0390
     17 O          65.1150   92.0892   16.1124 O.2     1  UNL1       -0.2258
     18 C          65.2864   92.3782   14.6506 C.2     1  UNL1        0.4088
     19 O          65.7024   93.6902   14.0541 O.3     1  UNL1       -0.4342
     20 C          65.7451   93.5288   12.5634 C.3     1  UNL1        0.2149
     21 C          65.3555   92.1172   12.2386 C.3     1  UNL1        0.1471
     22 N          65.0720   91.4061   13.5285 N.am    1  UNL1       -0.2212
     23 C          66.1129   94.5924   11.5716 C.3     1  UNL1        0.1745
     24 N          66.9205   94.2392   10.3580 N.ar    1  UNL1       -0.2264
     25 C          66.9387   94.9928    9.0612 C.ar    1  UNL1        0.1193
     26 C          67.8811   94.2898    8.1298 C.ar    1  UNL1        0.1441
     27 N          68.4453   93.1017    8.8509 N.ar    1  UNL1       -0.1271
     28 N          67.8516   93.0704   10.2281 N.ar    1  UNL1       -0.0636
@<TRIPOS>BOND
     1    17    18    2
     2    18    19    1
     3    19    20    1
     4    20    23    1
     5    23    24    1
     6    24    25   ar
     7    25    26   ar
     8    26    27   ar
     9    27    28   ar
    10    20    21    1
    11    21    22    1
    12    22     1    1
    13     1     2   ar
    14     2     3   ar
    15     3     4   ar
    16     4     8    1
    17     8     9   ar
    18     9    10   ar
    19    10    11   ar
    20    11    12   ar
    21    12    13   ar
    22    13    14   ar
    23    14    15   ar
    24    15    16   ar
    25     4     5   ar
    26     5     6    1
    27     5     7   ar
    28    22    18   am
    29     7     1   ar
    30    28    24   ar
    31    16     8   ar
    32    15    11   ar
@<TRIPOS>MOLECULE
*****
 28 32 0 0 0
SMALL
GASTEIGER

@<TRIPOS>ATOM
      1 C          63.9754   88.2316   13.5002 C.ar    1  UNL1        0.0593
      2 C          64.4719   87.3547   14.6113 C.ar    1  UNL1        0.0152
      3 C          64.2319   85.8748   14.5630 C.ar    1  UNL1        0.0035
      4 C          63.4955   85.2719   13.4038 C.ar    1  UNL1        0.0277
      5 C          62.9990   86.1488   12.2927 C.ar    1  UNL1        0.1413
      6 F          62.2624   85.5459   11.1333 F       1  UNL1       -0.2041
      7 C          63.2389   87.6287   12.3409 C.ar    1  UNL1        0.0446
      8 C          63.2554   83.7919   13.3555 C.ar    1  UNL1        0.0068
      9 C          64.2840   82.8847   12.7482 C.ar    1  UNL1        0.0209
     10 C          64.0439   81.4048   12.6999 C.ar    1  UNL1        0.1021
     11 N          62.7752   80.8322   13.2589 N.ar    1  UNL1       -0.2092
     12 N          62.2647   79.4248   13.3517 N.ar    1  UNL1       -0.1409
     13 C          60.9205   79.4623   14.0163 C.ar    1  UNL1        0.2213
     14 N          60.6003   80.8929   14.3343 N.ar    1  UNL1       -0.2034
     15 C          61.7466   81.7395   13.8662 C.ar    1  UNL1        0.1656
     16 C          61.9867   83.2194   13.9145 C.ar    1  UNL1        0.0390
     17 O          62.6560   90.4548   11.5087 O.2     1  UNL1       -0.2258
     18 C          63.6089   90.7334   12.6331 C.2     1  UNL1        0.4088
     19 O          64.1227   92.0828   13.0394 O.3     1  UNL1       -0.4342
     20 C          65.0468   91.8949   14.2060 C.3     1  UNL1        0.2149
     21 C          65.1041   90.4293   14.5206 C.3     1  UNL1        0.1471
     22 N          64.2154   89.7115   13.5485 N.am    1  UNL1       -0.2212
     23 C          65.7841   92.9817   14.9307 C.3     1  UNL1        0.1745
     24 N          67.2838   92.9815   14.9576 N.ar    1  UNL1       -0.2264
     25 C          68.1468   93.6092   16.0118 C.ar    1  UNL1        0.1193
     26 C          69.5802   93.3691   15.6408 C.ar    1  UNL1        0.1441
     27 N          69.6031   92.5931   14.3573 N.ar    1  UNL1       -0.1271
     28 N          68.1839   92.3535   13.9351 N.ar    1  UNL1       -0.0636
@<TRIPOS>BOND
     1    17    18    2
     2    18    19    1
     3    19    20    1
     4    20    23    1
     5    23    24    1
     6    24    25   ar
     7    25    26   ar
     8    26    27   ar
     9    27    28   ar
    10    20    21    1
    11    21    22    1
    12    22     1    1
    13     1     2   ar
    14     2     3   ar
    15     3     4   ar
    16     4     8    1
    17     8     9   ar
    18     9    10   ar
    19    10    11   ar
    20    11    12   ar
    21    12    13   ar
    22    13    14   ar
    23    14    15   ar
    24    15    16   ar
    25     4     5   ar
    26     5     6    1
    27     5     7   ar
    28    22    18   am
    29     7     1   ar
    30    28    24   ar
    31    16     8   ar
    32    15    11   ar
