@<TRIPOS>MOLECULE
*****
 25 28 0 0 0
SMALL
GASTEIGER

@<TRIPOS>ATOM
      1 C          61.9071   87.9656   10.8126 C.ar    1  UNL1        0.0611
      2 C          62.2031   89.3903   11.1763 C.ar    1  UNL1        0.0318
      3 C          63.0251   89.6987   12.3926 C.ar    1  UNL1        0.0527
      4 C          63.5509   88.5822   13.2452 C.ar    1  UNL1        0.0489
      5 C          64.3823   88.5787   14.4937 C.ar    1  UNL1        0.0249
      6 C          64.6002   87.1518   14.9015 C.ar    1  UNL1        0.1006
      7 N          63.9033   86.2733   13.9051 N.ar    1  UNL1       -0.2269
      8 C          63.2548   87.1574   12.8815 C.ar    1  UNL1        0.1417
      9 N          62.4329   86.8491   11.6651 N.ar    1  UNL1       -0.3384
     10 H          62.2386   85.9140   11.4264 H       1  UNL1        0.1674
     11 F          60.1273   90.0719    9.6312 F       1  UNL1       -0.2041
     12 C          60.1954   88.7104    9.0055 C.ar    1  UNL1        0.1415
     13 C          59.3735   88.4020    7.7892 C.ar    1  UNL1        0.0297
     14 C          59.4415   87.0404    7.1636 C.ar    1  UNL1        0.0023
     15 C          60.3314   85.9872    7.7542 C.ar    1  UNL1        0.0002
     16 C          61.1533   86.2956    8.9706 C.ar    1  UNL1        0.0037
     17 C          61.0852   87.6572    9.5962 C.ar    1  UNL1        0.0431
     18 N          63.3211   91.1236   12.7563 N.pl3   1  UNL1       -0.3123
     19 H          62.6460   91.6611   13.2302 H       1  UNL1        0.1522
     20 C          64.6456   91.7294   12.3979 C.ar    1  UNL1        0.0514
     21 C          64.9130   92.1677   10.9885 C.ar    1  UNL1        0.0353
     22 C          66.2375   92.7736   10.6300 C.ar    1  UNL1        0.1002
     23 N          67.2947   92.9412   11.6809 N.ar    1  UNL1       -0.2422
     24 C          67.0273   92.5028   13.0903 C.ar    1  UNL1        0.1002
     25 C          65.7027   91.8970   13.4488 C.ar    1  UNL1        0.0353
@<TRIPOS>BOND
     1    11    12    1
     2    12    13   ar
     3    13    14   ar
     4    14    15   ar
     5    15    16   ar
     6    16    17   ar
     7    17     1    1
     8     1     2   ar
     9     2     3   ar
    10     3    18    1
    11    18    20    1
    12    20    21   ar
    13    21    22   ar
    14    22    23   ar
    15    23    24   ar
    16    24    25   ar
    17     3     4   ar
    18     4     5   ar
    19     5     6   ar
    20     6     7   ar
    21     7     8   ar
    22     8     9   ar
    23    17    12   ar
    24     9     1   ar
    25    25    20   ar
    26     8     4    1
    27    18    19    1
    28     9    10    1
@<TRIPOS>MOLECULE
*****
 25 28 0 0 0
SMALL
GASTEIGER

@<TRIPOS>ATOM
      1 C          62.7242   89.8949   10.9988 C.ar    1  UNL1        0.0611
      2 C          62.9209   89.7123   12.4745 C.ar    1  UNL1        0.0318
      3 C          63.8681   90.6044   13.2210 C.ar    1  UNL1        0.0527
      4 C          64.6184   91.6791   12.4916 C.ar    1  UNL1        0.0489
      5 C          65.6113   92.7026   12.9571 C.ar    1  UNL1        0.0249
      6 C          66.0281   93.5178   11.7689 C.ar    1  UNL1        0.1006
      7 N          65.2929   92.9981   10.5692 N.ar    1  UNL1       -0.2269
      8 C          64.4216   91.8617   11.0158 C.ar    1  UNL1        0.1417
      9 N          63.4745   90.9696   10.2694 N.ar    1  UNL1       -0.3384
     10 H          63.3453   91.0895    9.3008 H       1  UNL1        0.1674
     11 F          62.8152   86.9256   11.4171 F       1  UNL1       -0.2041
     12 C          61.8226   87.5183   10.4614 C.ar    1  UNL1        0.1415
     13 C          60.8754   86.6262    9.7149 C.ar    1  UNL1        0.0297
     14 C          59.8827   87.2189    8.7593 C.ar    1  UNL1        0.0023
     15 C          59.8372   88.7035    8.5501 C.ar    1  UNL1        0.0002
     16 C          60.7843   89.5955    9.2966 C.ar    1  UNL1        0.0037
     17 C          61.7770   89.0029   10.2523 C.ar    1  UNL1        0.0431
     18 N          64.0648   90.4217   14.6968 N.pl3   1  UNL1       -0.3123
     19 H          64.3379   91.1851   15.2552 H       1  UNL1        0.1522
     20 C          63.8453   89.0759   15.3217 C.ar    1  UNL1        0.0514
     21 C          63.1060   88.9645   16.6222 C.ar    1  UNL1        0.0353
     22 C          62.8866   87.6187   17.2472 C.ar    1  UNL1        0.1002
     23 N          63.4064   86.3843   16.5718 N.ar    1  UNL1       -0.2422
     24 C          64.1456   86.4958   15.2714 C.ar    1  UNL1        0.1002
     25 C          64.3651   87.8415   14.6464 C.ar    1  UNL1        0.0353
@<TRIPOS>BOND
     1    11    12    1
     2    12    13   ar
     3    13    14   ar
     4    14    15   ar
     5    15    16   ar
     6    16    17   ar
     7    17     1    1
     8     1     2   ar
     9     2     3   ar
    10     3    18    1
    11    18    20    1
    12    20    21   ar
    13    21    22   ar
    14    22    23   ar
    15    23    24   ar
    16    24    25   ar
    17     3     4   ar
    18     4     5   ar
    19     5     6   ar
    20     6     7   ar
    21     7     8   ar
    22     8     9   ar
    23    17    12   ar
    24     9     1   ar
    25    25    20   ar
    26     8     4    1
    27    18    19    1
    28     9    10    1
@<TRIPOS>MOLECULE
*****
 25 28 0 0 0
SMALL
GASTEIGER

@<TRIPOS>ATOM
      1 C          62.9556   84.9260   12.8292 C.ar    1  UNL1        0.0611
      2 C          62.3995   85.6749   11.6546 C.ar    1  UNL1        0.0318
      3 C          62.5638   87.1634   11.5681 C.ar    1  UNL1        0.0527
      4 C          63.2842   87.9029   12.6563 C.ar    1  UNL1        0.0489
      5 C          63.5981   89.3577   12.8433 C.ar    1  UNL1        0.0249
      6 C          64.3482   89.5078   14.1335 C.ar    1  UNL1        0.1006
      7 N          64.4979   88.1459   14.7440 N.ar    1  UNL1       -0.2269
      8 C          63.8403   87.1539   13.8309 C.ar    1  UNL1        0.1417
      9 N          63.6760   85.6655   13.9174 N.ar    1  UNL1       -0.3384
     10 H          64.0410   85.1739   14.6884 H       1  UNL1        0.1674
     11 F          63.8258   83.1854   10.5459 F       1  UNL1       -0.2041
     12 C          63.2264   82.5673   11.7742 C.ar    1  UNL1        0.1415
     13 C          63.0622   81.0787   11.8607 C.ar    1  UNL1        0.0297
     14 C          62.4628   80.4605   13.0889 C.ar    1  UNL1        0.0023
     15 C          62.0277   81.3308   14.2306 C.ar    1  UNL1        0.0002
     16 C          62.1920   82.8193   14.1440 C.ar    1  UNL1        0.0037
     17 C          62.7914   83.4374   12.9158 C.ar    1  UNL1        0.0431
     18 N          62.0077   87.9123   10.3934 N.pl3   1  UNL1       -0.3123
     19 H          62.1110   88.8898   10.3391 H       1  UNL1        0.1522
     20 C          61.2940   87.1718    9.3015 C.ar    1  UNL1        0.0514
     21 C          59.8496   87.4611    9.0191 C.ar    1  UNL1        0.0353
     22 C          59.1359   86.7207    7.9272 C.ar    1  UNL1        0.1002
     23 N          59.8667   85.6908    7.1176 N.ar    1  UNL1       -0.2422
     24 C          61.3111   85.4015    7.4000 C.ar    1  UNL1        0.1002
     25 C          62.0248   86.1420    8.4919 C.ar    1  UNL1        0.0353
@<TRIPOS>BOND
     1    11    12    1
     2    12    13   ar
     3    13    14   ar
     4    14    15   ar
     5    15    16   ar
     6    16    17   ar
     7    17     1    1
     8     1     2   ar
     9     2     3   ar
    10     3    18    1
    11    18    20    1
    12    20    21   ar
    13    21    22   ar
    14    22    23   ar
    15    23    24   ar
    16    24    25   ar
    17     3     4   ar
    18     4     5   ar
    19     5     6   ar
    20     6     7   ar
    21     7     8   ar
    22     8     9   ar
    23    17    12   ar
    24     9     1   ar
    25    25    20   ar
    26     8     4    1
    27    18    19    1
    28     9    10    1
@<TRIPOS>MOLECULE
*****
 25 28 0 0 0
SMALL
GASTEIGER

@<TRIPOS>ATOM
      1 C          62.5628   89.7152   10.7870 C.ar    1  UNL1        0.0611
      2 C          62.4383   88.3586   11.4146 C.ar    1  UNL1        0.0318
      3 C          61.4680   87.3600   10.8563 C.ar    1  UNL1        0.0527
      4 C          60.6223   87.7183    9.6704 C.ar    1  UNL1        0.0489
      5 C          59.5867   86.9475    8.9066 C.ar    1  UNL1        0.0249
      6 C          59.0712   87.8278    7.8070 C.ar    1  UNL1        0.1006
      7 N          59.7882   89.1427    7.8911 N.ar    1  UNL1       -0.2269
      8 C          60.7468   89.0750    9.0428 C.ar    1  UNL1        0.1417
      9 N          61.7171   90.0734    9.6011 N.ar    1  UNL1       -0.3384
     10 H          61.7988   90.9639    9.1892 H       1  UNL1        0.1674
     11 F          63.2939   89.6322   13.6954 F       1  UNL1       -0.2041
     12 C          63.8986   90.6722   12.7994 C.ar    1  UNL1        0.1415
     13 C          64.8689   91.6708   13.3577 C.ar    1  UNL1        0.0297
     14 C          65.4736   92.7107   12.4617 C.ar    1  UNL1        0.0023
     15 C          65.1080   92.7522   11.0075 C.ar    1  UNL1        0.0002
     16 C          64.1378   91.7537   10.4493 C.ar    1  UNL1        0.0037
     17 C          63.5331   90.7137   11.3453 C.ar    1  UNL1        0.0431
     18 N          61.3436   86.0033   11.4840 N.pl3   1  UNL1       -0.3123
     19 H          60.5302   85.7655   11.9851 H       1  UNL1        0.1522
     20 C          62.4584   85.0090   11.3482 C.ar    1  UNL1        0.0514
     21 C          63.1332   84.4670   12.5733 C.ar    1  UNL1        0.0353
     22 C          64.2480   83.4727   12.4376 C.ar    1  UNL1        0.1002
     23 N          64.6880   83.0203   11.0769 N.ar    1  UNL1       -0.2422
     24 C          64.0132   83.5623    9.8517 C.ar    1  UNL1        0.1002
     25 C          62.8984   84.5567    9.9874 C.ar    1  UNL1        0.0353
@<TRIPOS>BOND
     1    11    12    1
     2    12    13   ar
     3    13    14   ar
     4    14    15   ar
     5    15    16   ar
     6    16    17   ar
     7    17     1    1
     8     1     2   ar
     9     2     3   ar
    10     3    18    1
    11    18    20    1
    12    20    21   ar
    13    21    22   ar
    14    22    23   ar
    15    23    24   ar
    16    24    25   ar
    17     3     4   ar
    18     4     5   ar
    19     5     6   ar
    20     6     7   ar
    21     7     8   ar
    22     8     9   ar
    23    17    12   ar
    24     9     1   ar
    25    25    20   ar
    26     8     4    1
    27    18    19    1
    28     9    10    1
@<TRIPOS>MOLECULE
*****
 25 28 0 0 0
SMALL
GASTEIGER

@<TRIPOS>ATOM
      1 C          62.7285   89.5280   10.8898 C.ar    1  UNL1        0.0611
      2 C          63.2168   90.8448   10.3632 C.ar    1  UNL1        0.0318
      3 C          64.0609   91.7325   11.2291 C.ar    1  UNL1        0.0527
      4 C          64.4166   91.3032   12.6216 C.ar    1  UNL1        0.0489
      5 C          65.2263   91.9618   13.6990 C.ar    1  UNL1        0.0249
      6 C          65.2383   91.0519   14.8914 C.ar    1  UNL1        0.1006
      7 N          64.4361   89.8310   14.5511 N.ar    1  UNL1       -0.2269
      8 C          63.9283   89.9863   13.1482 C.ar    1  UNL1        0.1417
      9 N          63.0842   89.0987   12.2823 N.ar    1  UNL1       -0.3384
     10 H          62.7637   88.2344   12.6280 H       1  UNL1        0.1674
     11 F          60.0537   90.4809    9.9215 F       1  UNL1       -0.2041
     12 C          60.5471   89.1168    9.5398 C.ar    1  UNL1        0.1415
     13 C          59.7031   88.2292    8.6739 C.ar    1  UNL1        0.0297
     14 C          60.1965   86.8651    8.2922 C.ar    1  UNL1        0.0023
     15 C          61.5338   86.3886    8.7763 C.ar    1  UNL1        0.0002
     16 C          62.3778   87.2763    9.6422 C.ar    1  UNL1        0.0037
     17 C          61.8844   88.6404   10.0239 C.ar    1  UNL1        0.0431
     18 N          64.5492   93.0494   10.7024 N.pl3   1  UNL1       -0.3123
     19 H          63.9261   93.8068   10.6166 H       1  UNL1        0.1522
     20 C          65.9868   93.2123   10.3064 C.ar    1  UNL1        0.0514
     21 C          66.9464   92.0727   10.4809 C.ar    1  UNL1        0.0353
     22 C          68.3840   92.2355   10.0850 C.ar    1  UNL1        0.1002
     23 N          68.8620   93.5379    9.5146 N.ar    1  UNL1       -0.2422
     24 C          67.9023   94.6774    9.3401 C.ar    1  UNL1        0.1002
     25 C          66.4647   94.5146    9.7360 C.ar    1  UNL1        0.0353
@<TRIPOS>BOND
     1    11    12    1
     2    12    13   ar
     3    13    14   ar
     4    14    15   ar
     5    15    16   ar
     6    16    17   ar
     7    17     1    1
     8     1     2   ar
     9     2     3   ar
    10     3    18    1
    11    18    20    1
    12    20    21   ar
    13    21    22   ar
    14    22    23   ar
    15    23    24   ar
    16    24    25   ar
    17     3     4   ar
    18     4     5   ar
    19     5     6   ar
    20     6     7   ar
    21     7     8   ar
    22     8     9   ar
    23    17    12   ar
    24     9     1   ar
    25    25    20   ar
    26     8     4    1
    27    18    19    1
    28     9    10    1
@<TRIPOS>MOLECULE
*****
 25 28 0 0 0
SMALL
GASTEIGER

@<TRIPOS>ATOM
      1 C          62.1142   85.8936   10.6690 C.ar    1  UNL1        0.0611
      2 C          62.1170   87.2078   11.3919 C.ar    1  UNL1        0.0318
      3 C          61.3827   88.3823   10.8160 C.ar    1  UNL1        0.0527
      4 C          60.6456   88.2423    9.5171 C.ar    1  UNL1        0.0489
      5 C          59.8386   89.2165    8.7111 C.ar    1  UNL1        0.0249
      6 C          59.3370   88.5043    7.4900 C.ar    1  UNL1        0.1006
      7 N          59.8340   87.0900    7.5413 N.ar    1  UNL1       -0.2269
      8 C          60.6428   86.9281    8.7942 C.ar    1  UNL1        0.1417
      9 N          61.3771   85.7537    9.3701 N.ar    1  UNL1       -0.3384
     10 H          61.3753   84.8911    8.8956 H       1  UNL1        0.1674
     11 F          63.6401   84.0464    8.8636 F       1  UNL1       -0.2041
     12 C          63.6114   83.7956   10.3422 C.ar    1  UNL1        0.1415
     13 C          64.3457   82.6211   10.9181 C.ar    1  UNL1        0.0297
     14 C          64.3169   82.3704   12.3967 C.ar    1  UNL1        0.0023
     15 C          63.5540   83.2940   13.2994 C.ar    1  UNL1        0.0002
     16 C          62.8197   84.4684   12.7234 C.ar    1  UNL1        0.0037
     17 C          62.8485   84.7191   11.2449 C.ar    1  UNL1        0.0431
     18 N          61.3856   89.6965   11.5391 N.pl3   1  UNL1       -0.3123
     19 H          60.5544   90.0397   11.9399 H       1  UNL1        0.1522
     20 C          62.6548   90.4879   11.6514 C.ar    1  UNL1        0.0514
     21 C          63.3990   90.5311   12.9531 C.ar    1  UNL1        0.0353
     22 C          64.6682   91.3225   13.0656 C.ar    1  UNL1        0.1002
     23 N          65.1933   92.0707   11.8763 N.ar    1  UNL1       -0.2422
     24 C          64.4492   92.0276   10.5746 C.ar    1  UNL1        0.1002
     25 C          63.1799   91.2362   10.4622 C.ar    1  UNL1        0.0353
@<TRIPOS>BOND
     1    11    12    1
     2    12    13   ar
     3    13    14   ar
     4    14    15   ar
     5    15    16   ar
     6    16    17   ar
     7    17     1    1
     8     1     2   ar
     9     2     3   ar
    10     3    18    1
    11    18    20    1
    12    20    21   ar
    13    21    22   ar
    14    22    23   ar
    15    23    24   ar
    16    24    25   ar
    17     3     4   ar
    18     4     5   ar
    19     5     6   ar
    20     6     7   ar
    21     7     8   ar
    22     8     9   ar
    23    17    12   ar
    24     9     1   ar
    25    25    20   ar
    26     8     4    1
    27    18    19    1
    28     9    10    1
@<TRIPOS>MOLECULE
*****
 25 28 0 0 0
SMALL
GASTEIGER

@<TRIPOS>ATOM
      1 C          62.2194   86.7699   11.0753 C.ar    1  UNL1        0.0611
      2 C          62.6517   85.5975   11.9049 C.ar    1  UNL1        0.0318
      3 C          63.4300   85.8187   13.1680 C.ar    1  UNL1        0.0527
      4 C          63.7760   87.2124   13.6014 C.ar    1  UNL1        0.0489
      5 C          64.5269   87.7368   14.7893 C.ar    1  UNL1        0.0249
      6 C          64.5587   89.2334   14.6937 C.ar    1  UNL1        0.1006
      7 N          63.8274   89.6340   13.4468 N.ar    1  UNL1       -0.2269
      8 C          63.3436   88.3849   12.7717 C.ar    1  UNL1        0.1417
      9 N          62.5654   88.1636   11.5086 N.ar    1  UNL1       -0.3384
     10 H          62.2816   88.9332   10.9641 H       1  UNL1        0.1674
     11 F          63.4278   85.1970    8.8245 F       1  UNL1       -0.2041
     12 C          62.0452   85.7623    8.6869 C.ar    1  UNL1        0.1415
     13 C          61.2669   85.5411    7.4238 C.ar    1  UNL1        0.0297
     14 C          59.8844   86.1064    7.2861 C.ar    1  UNL1        0.0023
     15 C          59.2802   86.8929    8.4115 C.ar    1  UNL1        0.0002
     16 C          60.0585   87.1140    9.6745 C.ar    1  UNL1        0.0037
     17 C          61.4411   86.5487    9.8122 C.ar    1  UNL1        0.0431
     18 N          63.8623   84.6461   13.9976 N.pl3   1  UNL1       -0.3123
     19 H          64.5113   84.7718   14.7272 H       1  UNL1        0.1522
     20 C          63.3059   83.2820   13.7157 C.ar    1  UNL1        0.0514
     21 C          62.1662   82.7529   14.5350 C.ar    1  UNL1        0.0353
     22 C          61.6097   81.3888   14.2531 C.ar    1  UNL1        0.1002
     23 N          62.1928   80.5538   13.1519 N.ar    1  UNL1       -0.2422
     24 C          63.3325   81.0829   12.3326 C.ar    1  UNL1        0.1002
     25 C          63.8890   82.4470   12.6145 C.ar    1  UNL1        0.0353
@<TRIPOS>BOND
     1    11    12    1
     2    12    13   ar
     3    13    14   ar
     4    14    15   ar
     5    15    16   ar
     6    16    17   ar
     7    17     1    1
     8     1     2   ar
     9     2     3   ar
    10     3    18    1
    11    18    20    1
    12    20    21   ar
    13    21    22   ar
    14    22    23   ar
    15    23    24   ar
    16    24    25   ar
    17     3     4   ar
    18     4     5   ar
    19     5     6   ar
    20     6     7   ar
    21     7     8   ar
    22     8     9   ar
    23    17    12   ar
    24     9     1   ar
    25    25    20   ar
    26     8     4    1
    27    18    19    1
    28     9    10    1
@<TRIPOS>MOLECULE
*****
 25 28 0 0 0
SMALL
GASTEIGER

@<TRIPOS>ATOM
      1 C          62.2498   87.3422   11.0051 C.ar    1  UNL1        0.0611
      2 C          62.7119   86.3282   12.0091 C.ar    1  UNL1        0.0318
      3 C          63.4646   86.7698   13.2292 C.ar    1  UNL1        0.0527
      4 C          63.7550   88.2255   13.4451 C.ar    1  UNL1        0.0489
      5 C          64.4706   88.9539   14.5439 C.ar    1  UNL1        0.0249
      6 C          64.4507   90.4182   14.2189 C.ar    1  UNL1        0.1006
      7 N          63.7228   90.5947   12.9192 N.ar    1  UNL1       -0.2269
      8 C          63.2929   89.2395   12.4410 C.ar    1  UNL1        0.1417
      9 N          62.5403   88.7978   11.2210 N.ar    1  UNL1       -0.3384
     10 H          62.2369   89.4634   10.5620 H       1  UNL1        0.1674
     11 F          59.4223   88.2487   10.5769 F       1  UNL1       -0.2041
     12 C          60.0834   87.3538    9.5709 C.ar    1  UNL1        0.1415
     13 C          59.3308   86.9122    8.3508 C.ar    1  UNL1        0.0297
     14 C          59.9920   86.0173    7.3449 C.ar    1  UNL1        0.0023
     15 C          61.4057   85.5640    7.5590 C.ar    1  UNL1        0.0002
     16 C          62.1583   86.0056    8.7790 C.ar    1  UNL1        0.0037
     17 C          61.4971   86.9005    9.7850 C.ar    1  UNL1        0.0431
     18 N          63.9267   85.7558   14.2333 N.pl3   1  UNL1       -0.3123
     19 H          64.4307   86.0444   15.0282 H       1  UNL1        0.1522
     20 C          63.6208   84.3020   14.0262 C.ar    1  UNL1        0.0514
     21 C          64.5042   83.4677   13.1466 C.ar    1  UNL1        0.0353
     22 C          64.1984   82.0139   12.9395 C.ar    1  UNL1        0.1002
     23 N          63.0093   81.3944   13.6120 N.ar    1  UNL1       -0.2422
     24 C          62.1260   82.2287   14.4916 C.ar    1  UNL1        0.1002
     25 C          62.4317   83.6825   14.6987 C.ar    1  UNL1        0.0353
@<TRIPOS>BOND
     1    11    12    1
     2    12    13   ar
     3    13    14   ar
     4    14    15   ar
     5    15    16   ar
     6    16    17   ar
     7    17     1    1
     8     1     2   ar
     9     2     3   ar
    10     3    18    1
    11    18    20    1
    12    20    21   ar
    13    21    22   ar
    14    22    23   ar
    15    23    24   ar
    16    24    25   ar
    17     3     4   ar
    18     4     5   ar
    19     5     6   ar
    20     6     7   ar
    21     7     8   ar
    22     8     9   ar
    23    17    12   ar
    24     9     1   ar
    25    25    20   ar
    26     8     4    1
    27    18    19    1
    28     9    10    1
@<TRIPOS>MOLECULE
*****
 25 28 0 0 0
SMALL
GASTEIGER

@<TRIPOS>ATOM
      1 C          62.6376   89.3755   11.2567 C.ar    1  UNL1        0.0611
      2 C          62.4512   87.9304   11.6128 C.ar    1  UNL1        0.0318
      3 C          61.5077   87.0776   10.8174 C.ar    1  UNL1        0.0527
      4 C          60.7507   87.6700    9.6659 C.ar    1  UNL1        0.0489
      5 C          59.7594   87.0804    8.7069 C.ar    1  UNL1        0.0249
      6 C          59.3332   88.1612    7.7581 C.ar    1  UNL1        0.1006
      7 N          60.0611   89.4187    8.1307 N.ar    1  UNL1       -0.2269
      8 C          60.9372   89.1151    9.3098 C.ar    1  UNL1        0.1417
      9 N          61.8806   89.9679   10.1052 N.ar    1  UNL1       -0.3384
     10 H          62.0030   90.9164    9.8715 H       1  UNL1        0.1674
     11 F          63.7386   91.9018   10.0712 F       1  UNL1       -0.2041
     12 C          64.1316   91.4914   11.4594 C.ar    1  UNL1        0.1415
     13 C          65.0750   92.3442   12.2548 C.ar    1  UNL1        0.0297
     14 C          65.4680   91.9338   13.6430 C.ar    1  UNL1        0.0023
     15 C          64.9175   90.6706   14.2357 C.ar    1  UNL1        0.0002
     16 C          63.9741   89.8179   13.4403 C.ar    1  UNL1        0.0037
     17 C          63.5811   90.2283   12.0521 C.ar    1  UNL1        0.0431
     18 N          61.3213   85.6324   11.1735 N.pl3   1  UNL1       -0.3123
     19 H          60.4208   85.2857   11.3687 H       1  UNL1        0.1522
     20 C          62.5070   84.7155   11.2323 C.ar    1  UNL1        0.0514
     21 C          63.1251   84.2067    9.9638 C.ar    1  UNL1        0.0353
     22 C          64.3107   83.2897   10.0225 C.ar    1  UNL1        0.1002
     23 N          64.8783   82.8817   11.3496 N.ar    1  UNL1       -0.2422
     24 C          64.2602   83.3905   12.6181 C.ar    1  UNL1        0.1002
     25 C          63.0745   84.3074   12.5594 C.ar    1  UNL1        0.0353
@<TRIPOS>BOND
     1    11    12    1
     2    12    13   ar
     3    13    14   ar
     4    14    15   ar
     5    15    16   ar
     6    16    17   ar
     7    17     1    1
     8     1     2   ar
     9     2     3   ar
    10     3    18    1
    11    18    20    1
    12    20    21   ar
    13    21    22   ar
    14    22    23   ar
    15    23    24   ar
    16    24    25   ar
    17     3     4   ar
    18     4     5   ar
    19     5     6   ar
    20     6     7   ar
    21     7     8   ar
    22     8     9   ar
    23    17    12   ar
    24     9     1   ar
    25    25    20   ar
    26     8     4    1
    27    18    19    1
    28     9    10    1
