@<TRIPOS>MOLECULE
*****
 31 34 0 0 0
SMALL
GASTEIGER

@<TRIPOS>ATOM
      1 C          59.8093   87.7175    8.4887 C.3     1  UNL1        0.0736
      2 C          60.7871   87.7037    9.6261 C.ar    1  UNL1        0.1392
      3 N          61.0814   86.4216   10.3468 N.ar    1  UNL1       -0.2336
      4 C          62.0592   86.4078   11.4842 C.ar    1  UNL1        0.0779
      5 C          62.7427   87.6763   11.9010 C.ar    1  UNL1        0.0139
      6 C          62.4484   88.9585   11.1803 C.ar    1  UNL1        0.0969
      7 N          61.4706   88.9722   10.0429 N.ar    1  UNL1       -0.2295
      8 C          63.7205   87.6626   13.0384 C.3     1  UNL1        0.0490
      9 C          64.0147   86.3804   13.7591 C.3     1  UNL1        0.0805
     10 C          64.9925   86.3667   14.8965 C.3     1  UNL1        0.0219
     11 N          63.3312   85.1118   13.3423 N.am    1  UNL1       -0.2717
     12 C          63.6255   83.8297   14.0629 C.2     1  UNL1        0.2501
     13 O          64.6032   83.8159   15.2004 O.2     1  UNL1       -0.2699
     14 C          62.3534   85.1256   12.2049 C.3     1  UNL1        0.1392
     15 C          62.9419   82.5611   13.6462 C.ar    1  UNL1        0.0641
     16 C          61.8838   81.9570   14.5210 C.ar    1  UNL1        0.0054
     17 C          61.2003   80.6885   14.1042 C.ar    1  UNL1        0.0001
     18 C          61.5750   80.0241   12.8126 C.ar    1  UNL1        0.0047
     19 C          62.6331   80.6283   11.9377 C.ar    1  UNL1        0.0821
     20 C          63.3165   81.8968   12.3545 C.ar    1  UNL1        0.0659
     21 CL         64.3747   82.5010   11.4797 Cl      1  UNL1       -0.0822
     22 C          63.0077   79.9639   10.6461 C.3     1  UNL1        0.4194
     23 F          63.3823   79.2996    9.3545 F       1  UNL1       -0.1658
     24 F          63.2349   81.3082   10.0206 F       1  UNL1       -0.1658
     25 F          62.7805   78.6197   11.2716 F       1  UNL1       -0.1658
     26 C          63.1320   90.2270   11.5971 C.ar    1  UNL1        0.0928
     27 C          63.8350   91.1898   10.6868 C.ar    1  UNL1        0.0424
     28 C          64.3700   92.3133   11.5243 C.ar    1  UNL1        0.1215
     29 N          63.9976   92.0448   12.9524 N.ar    1  UNL1       -0.1710
     30 N          63.2324   90.7554   12.9973 N.ar    1  UNL1       -0.2742
     31 H          62.8613   90.3306   13.8042 H       1  UNL1        0.1890
@<TRIPOS>BOND
     1     1     2    1
     2     2     3   ar
     3     3     4   ar
     4     4     5   ar
     5     5     6   ar
     6     6    26    1
     7    26    27   ar
     8    27    28   ar
     9    28    29   ar
    10    29    30   ar
    11     6     7   ar
    12     5     8    1
    13     8     9    1
    14     9    10    1
    15     9    11    1
    16    11    12   am
    17    12    13    2
    18    12    15    1
    19    15    16   ar
    20    16    17   ar
    21    17    18   ar
    22    18    19   ar
    23    19    22    1
    24    22    23    1
    25    22    24    1
    26    22    25    1
    27    19    20   ar
    28    20    21    1
    29    11    14    1
    30     7     2   ar
    31    20    15   ar
    32    14     4    1
    33    30    26   ar
    34    30    31    1
@<TRIPOS>MOLECULE
*****
 31 34 0 0 0
SMALL
GASTEIGER

@<TRIPOS>ATOM
      1 C          62.9262   83.8600   13.8424 C.3     1  UNL1        0.0736
      2 C          62.8112   85.0269   12.9070 C.ar    1  UNL1        0.1392
      3 N          63.2785   86.3847   13.3406 N.ar    1  UNL1       -0.2336
      4 C          63.1635   87.5516   12.4052 C.ar    1  UNL1        0.0779
      5 C          62.5811   87.3608   11.0361 C.ar    1  UNL1        0.0139
      6 C          62.1138   86.0030   10.6025 C.ar    1  UNL1        0.0969
      7 N          62.2288   84.8361   11.5379 N.ar    1  UNL1       -0.2295
      8 C          62.4661   88.5277   10.1007 C.3     1  UNL1        0.0490
      9 C          62.9334   89.8854   10.5343 C.3     1  UNL1        0.0805
     10 C          62.8184   91.0524    9.5988 C.3     1  UNL1        0.0219
     11 N          63.5158   90.0763   11.9034 N.am    1  UNL1       -0.2717
     12 C          63.9832   91.4341   12.3370 C.2     1  UNL1        0.2501
     13 O          63.8681   92.6010   11.4016 O.2     1  UNL1       -0.2699
     14 C          63.6309   88.9094   12.8389 C.3     1  UNL1        0.1392
     15 C          64.5656   91.6249   13.7062 C.ar    1  UNL1        0.0641
     16 C          63.7506   91.2928   14.9208 C.ar    1  UNL1        0.0054
     17 C          64.3331   91.4837   16.2899 C.ar    1  UNL1        0.0001
     18 C          65.7304   92.0067   16.4442 C.ar    1  UNL1        0.0047
     19 C          66.5454   92.3388   15.2295 C.ar    1  UNL1        0.0821
     20 C          65.9630   92.1479   13.8605 C.ar    1  UNL1        0.0659
     21 CL         66.7779   92.4800   12.6457 Cl      1  UNL1       -0.0822
     22 C          67.9428   92.8618   15.3839 C.3     1  UNL1        0.4194
     23 F          69.3401   93.3848   15.5382 F       1  UNL1       -0.1658
     24 F          67.4437   94.2595   15.1661 F       1  UNL1       -0.1658
     25 F          68.4418   91.4641   15.6017 F       1  UNL1       -0.1658
     26 C          61.5314   85.8121    9.2334 C.ar    1  UNL1        0.0928
     27 C          62.2410   85.2308    8.0465 C.ar    1  UNL1        0.0424
     28 C          61.2854   85.2285    6.8904 C.ar    1  UNL1        0.1215
     29 N          59.9850   85.8083    7.3627 N.ar    1  UNL1       -0.1710
     30 N          60.1371   86.1691    8.8107 N.ar    1  UNL1       -0.2742
     31 H          59.4436   86.5697    9.3832 H       1  UNL1        0.1890
@<TRIPOS>BOND
     1     1     2    1
     2     2     3   ar
     3     3     4   ar
     4     4     5   ar
     5     5     6   ar
     6     6    26    1
     7    26    27   ar
     8    27    28   ar
     9    28    29   ar
    10    29    30   ar
    11     6     7   ar
    12     5     8    1
    13     8     9    1
    14     9    10    1
    15     9    11    1
    16    11    12   am
    17    12    13    2
    18    12    15    1
    19    15    16   ar
    20    16    17   ar
    21    17    18   ar
    22    18    19   ar
    23    19    22    1
    24    22    23    1
    25    22    24    1
    26    22    25    1
    27    19    20   ar
    28    20    21    1
    29    11    14    1
    30     7     2   ar
    31    20    15   ar
    32    14     4    1
    33    30    26   ar
    34    30    31    1
