@<TRIPOS>MOLECULE
*****
 32 35 0 0 0
SMALL
GASTEIGER

@<TRIPOS>ATOM
      1 N          64.2112   88.0121   14.7238 N.am    1  UNL1       -0.2677
      2 C          63.6013   87.8134   16.0798 C.2     1  UNL1        0.2316
      3 O          63.1535   88.9991   16.8818 O.2     1  UNL1       -0.2744
      4 H          64.5051   87.2338   14.1974 H       1  UNL1        0.1563
      5 N          65.2475   91.6160   13.7223 N.ar    1  UNL1       -0.2421
      6 C          63.9973   91.4383   12.9126 C.ar    1  UNL1        0.0985
      7 C          63.4569   90.0666   13.1893 C.ar    1  UNL1        0.0564
      8 C          64.3731   89.3965   14.1699 C.ar    1  UNL1        0.1555
      9 N          65.4797   90.3541   14.4993 N.ar    1  UNL1       -0.1536
     10 C          66.1134   92.8405   13.7500 C.3     1  UNL1        0.1728
     11 C          66.7303   95.2455    9.9970 C.ar    1  UNL1        0.0875
     12 C          66.9545   93.7625    9.9828 C.ar    1  UNL1        0.0131
     13 C          66.7489   92.9608   11.2338 C.ar    1  UNL1        0.0174
     14 C          66.3190   93.6422   12.4990 C.ar    1  UNL1        0.0837
     15 N          66.0949   95.1252   12.5133 N.ar    1  UNL1       -0.2454
     16 C          66.3005   95.9269   11.2623 C.ar    1  UNL1        0.1087
     17 N          67.1417   96.8489    7.4950 N.1     1  UNL1       -0.1908
     18 C          66.9360   96.0472    8.7460 C.1     1  UNL1        0.1020
     19 C          63.4394   86.4289   16.6337 C.3     1  UNL1        0.1117
     20 C          63.3464   85.2553   15.7042 C.ar    1  UNL1       -0.0131
     21 C          62.0721   84.4693   15.6138 C.ar    1  UNL1       -0.0041
     22 C          61.9792   83.2956   14.6842 C.ar    1  UNL1       -0.0043
     23 C          63.1606   82.9081   13.8451 C.ar    1  UNL1       -0.0149
     24 C          64.4349   83.6941   13.9356 C.ar    1  UNL1       -0.0043
     25 C          64.5278   84.8677   14.8651 C.ar    1  UNL1       -0.0041
     26 C          63.0676   81.7345   12.9156 C.3     1  UNL1        0.1063
     27 C          62.7698   80.3515   12.4169 C.3     1  UNL1        0.0129
     28 C          62.4457   80.7240   13.8333 C.3     1  UNL1        0.0129
     29 C          63.6571   82.3373   11.6750 C.3     1  UNL1        0.4006
     30 F          64.2468   82.9401   10.4345 F       1  UNL1       -0.1697
     31 F          62.3619   83.0430   11.4024 F       1  UNL1       -0.1697
     32 F          64.9524   81.6316   11.9477 F       1  UNL1       -0.1697
@<TRIPOS>BOND
     1    17    18    3
     2    18    11    1
     3    11    12   ar
     4    12    13   ar
     5    13    14   ar
     6    14    10    1
     7    10     5    1
     8     5     6   ar
     9     6     7   ar
    10     7     8   ar
    11     8     1    1
    12     1     2   am
    13     2     3    2
    14     2    19    1
    15    19    20    1
    16    20    21   ar
    17    21    22   ar
    18    22    23   ar
    19    23    26    1
    20    26    29    1
    21    29    30    1
    22    29    31    1
    23    29    32    1
    24    26    27    1
    25    27    28    1
    26    23    24   ar
    27    24    25   ar
    28     8     9   ar
    29    14    15   ar
    30    15    16   ar
    31    16    11   ar
    32     9     5   ar
    33    25    20   ar
    34    28    26    1
    35     1     4    1
@<TRIPOS>MOLECULE
*****
 32 35 0 0 0
SMALL
GASTEIGER

@<TRIPOS>ATOM
      1 N          64.1429   88.4685   15.1615 N.am    1  UNL1       -0.2677
      2 C          63.7890   89.2411   13.9254 C.2     1  UNL1        0.2316
      3 O          63.4858   88.5152   12.6484 O.2     1  UNL1       -0.2744
      4 H          64.3420   88.9450   15.9997 H       1  UNL1        0.1563
      5 N          63.5310   84.6357   15.1712 N.ar    1  UNL1       -0.2421
      6 C          65.0126   84.6921   14.9433 C.ar    1  UNL1        0.0985
      7 C          65.4222   86.1348   14.9120 C.ar    1  UNL1        0.0564
      8 C          64.1937   86.9700   15.1204 C.ar    1  UNL1        0.1555
      9 N          63.0250   86.0436   15.2807 N.ar    1  UNL1       -0.1536
     10 C          62.7013   83.3902   15.2720 C.3     1  UNL1        0.1728
     11 C          62.7318   80.3888   11.9192 C.ar    1  UNL1        0.0875
     12 C          63.0710   81.8239   11.6443 C.ar    1  UNL1        0.0131
     13 C          63.0608   82.8243   12.7619 C.ar    1  UNL1        0.0174
     14 C          62.7115   82.3897   14.1544 C.ar    1  UNL1        0.0837
     15 N          62.3723   80.9547   14.4293 N.ar    1  UNL1       -0.2454
     16 C          62.3825   79.9543   13.3117 C.ar    1  UNL1        0.1087
     17 N          62.7522   78.3880    9.6840 N.1     1  UNL1       -0.1908
     18 C          62.7420   79.3884   10.8016 C.1     1  UNL1        0.1020
     19 C          63.7382   90.7397   13.9665 C.3     1  UNL1        0.1117
     20 C          64.5761   91.5448   13.0180 C.ar    1  UNL1       -0.0131
     21 C          64.2217   91.5947   11.5613 C.ar    1  UNL1       -0.0041
     22 C          65.0597   92.3999   10.6127 C.ar    1  UNL1       -0.0043
     23 C          66.2520   93.1549   11.1209 C.ar    1  UNL1       -0.0149
     24 C          66.6064   93.1050   12.5776 C.ar    1  UNL1       -0.0043
     25 C          65.7685   92.2999   13.5261 C.ar    1  UNL1       -0.0041
     26 C          67.0899   93.9600   10.1723 C.3     1  UNL1        0.1063
     27 C          67.6805   95.1491    9.4743 C.3     1  UNL1        0.0129
     28 C          66.6688   95.3454   10.5643 C.3     1  UNL1        0.0129
     29 C          67.8019   92.8544    9.4508 C.3     1  UNL1        0.4006
     30 F          68.5139   91.7488    8.7293 F       1  UNL1       -0.1697
     31 F          67.9835   92.1245   10.7486 F       1  UNL1       -0.1697
     32 F          67.6203   93.5843    8.1530 F       1  UNL1       -0.1697
@<TRIPOS>BOND
     1    17    18    3
     2    18    11    1
     3    11    12   ar
     4    12    13   ar
     5    13    14   ar
     6    14    10    1
     7    10     5    1
     8     5     6   ar
     9     6     7   ar
    10     7     8   ar
    11     8     1    1
    12     1     2   am
    13     2     3    2
    14     2    19    1
    15    19    20    1
    16    20    21   ar
    17    21    22   ar
    18    22    23   ar
    19    23    26    1
    20    26    29    1
    21    29    30    1
    22    29    31    1
    23    29    32    1
    24    26    27    1
    25    27    28    1
    26    23    24   ar
    27    24    25   ar
    28     8     9   ar
    29    14    15   ar
    30    15    16   ar
    31    16    11   ar
    32     9     5   ar
    33    25    20   ar
    34    28    26    1
    35     1     4    1
@<TRIPOS>MOLECULE
*****
 32 35 0 0 0
SMALL
GASTEIGER

@<TRIPOS>ATOM
      1 N          64.3537   88.6618   15.3472 N.am    1  UNL1       -0.2677
      2 C          63.7715   89.6326   14.3631 C.2     1  UNL1        0.2316
      3 O          62.7897   89.1584   13.3329 O.2     1  UNL1       -0.2744
      4 H          64.9980   88.9731   16.0234 H       1  UNL1        0.1563
      5 N          63.4602   84.9832   14.4903 N.ar    1  UNL1       -0.2421
      6 C          63.2185   85.0028   15.9706 C.ar    1  UNL1        0.0985
      7 C          63.5238   86.3833   16.4718 C.ar    1  UNL1        0.0564
      8 C          63.9542   87.2168   15.3012 C.ar    1  UNL1        0.1555
      9 N          63.9148   86.3515   14.0766 N.ar    1  UNL1       -0.1536
     10 C          63.2790   83.8025   13.5830 C.3     1  UNL1        0.1728
     11 C          62.9317   84.4130    9.1381 C.ar    1  UNL1        0.0875
     12 C          63.8973   83.4030    9.6832 C.ar    1  UNL1        0.0131
     13 C          64.0131   83.1995   11.1649 C.ar    1  UNL1        0.0174
     14 C          63.1632   84.0060   12.1014 C.ar    1  UNL1        0.0837
     15 N          62.1975   85.0161   11.5562 N.ar    1  UNL1       -0.2454
     16 C          62.0817   85.2196   10.0746 C.ar    1  UNL1        0.1087
     17 N          62.7001   84.8200    6.1749 N.1     1  UNL1       -0.1908
     18 C          62.8159   84.6165    7.6565 C.1     1  UNL1        0.1020
     19 C          64.1710   91.0777   14.4091 C.3     1  UNL1        0.1117
     20 C          64.9832   91.6672   13.2943 C.ar    1  UNL1       -0.0131
     21 C          64.3481   91.9286   11.9607 C.ar    1  UNL1       -0.0041
     22 C          65.1604   92.5181   10.8458 C.ar    1  UNL1       -0.0043
     23 C          66.6075   92.8461   11.0646 C.ar    1  UNL1       -0.0149
     24 C          67.2426   92.5847   12.3981 C.ar    1  UNL1       -0.0043
     25 C          66.4304   91.9952   13.5130 C.ar    1  UNL1       -0.0041
     26 C          67.4197   93.4356    9.9497 C.3     1  UNL1        0.1063
     27 C          68.4564   93.5564    8.8723 C.3     1  UNL1        0.0129
     28 C          68.3482   92.2910    9.6705 C.3     1  UNL1        0.0129
     29 C          66.7734   94.7848    9.8416 C.3     1  UNL1        0.4006
     30 F          66.1270   96.1341    9.7337 F       1  UNL1       -0.1697
     31 F          66.6224   94.5939    8.3615 F       1  UNL1       -0.1697
     32 F          66.9244   94.9756   11.3218 F       1  UNL1       -0.1697
@<TRIPOS>BOND
     1    17    18    3
     2    18    11    1
     3    11    12   ar
     4    12    13   ar
     5    13    14   ar
     6    14    10    1
     7    10     5    1
     8     5     6   ar
     9     6     7   ar
    10     7     8   ar
    11     8     1    1
    12     1     2   am
    13     2     3    2
    14     2    19    1
    15    19    20    1
    16    20    21   ar
    17    21    22   ar
    18    22    23   ar
    19    23    26    1
    20    26    29    1
    21    29    30    1
    22    29    31    1
    23    29    32    1
    24    26    27    1
    25    27    28    1
    26    23    24   ar
    27    24    25   ar
    28     8     9   ar
    29    14    15   ar
    30    15    16   ar
    31    16    11   ar
    32     9     5   ar
    33    25    20   ar
    34    28    26    1
    35     1     4    1
@<TRIPOS>MOLECULE
*****
 32 35 0 0 0
SMALL
GASTEIGER

@<TRIPOS>ATOM
      1 N          63.6326   87.5319   15.5767 N.am    1  UNL1       -0.2677
      2 C          63.2152   86.7737   16.8018 C.2     1  UNL1        0.2316
      3 O          63.0103   87.4984   18.0989 O.2     1  UNL1       -0.2744
      4 H          63.7671   87.0561   14.7254 H       1  UNL1        0.1563
      5 N          64.7775   91.2319   15.3216 N.ar    1  UNL1       -0.2421
      6 C          63.5670   91.3627   16.1978 C.ar    1  UNL1        0.0985
      7 C          62.9908   89.9926   16.4000 C.ar    1  UNL1        0.0564
      8 C          63.8452   89.0149   15.6488 C.ar    1  UNL1        0.1555
      9 N          64.9493   89.7808   14.9823 N.ar    1  UNL1       -0.1536
     10 C          65.6609   92.3547   14.8648 C.3     1  UNL1        0.1728
     11 C          67.6106   92.1784   10.8130 C.ar    1  UNL1        0.0875
     12 C          68.3785   91.7650   12.0334 C.ar    1  UNL1        0.0131
     13 C          67.7285   91.8238   13.3840 C.ar    1  UNL1        0.0174
     14 C          66.3108   92.2960   13.5142 C.ar    1  UNL1        0.0837
     15 N          65.5430   92.7093   12.2938 N.ar    1  UNL1       -0.2454
     16 C          66.1929   92.6505   10.9432 C.ar    1  UNL1        0.1087
     17 N          68.9105   92.0608    8.1118 N.1     1  UNL1       -0.1908
     18 C          68.2606   92.1196    9.4624 C.1     1  UNL1        0.1020
     19 C          63.0027   85.2905   16.7297 C.3     1  UNL1        0.1117
     20 C          63.0797   84.5852   15.4081 C.ar    1  UNL1       -0.0131
     21 C          62.0215   83.5937   15.0244 C.ar    1  UNL1       -0.0041
     22 C          62.0986   82.8883   13.7027 C.ar    1  UNL1       -0.0043
     23 C          63.2338   83.1745   12.7651 C.ar    1  UNL1       -0.0149
     24 C          64.2919   84.1659   13.1488 C.ar    1  UNL1       -0.0043
     25 C          64.2149   84.8713   14.4703 C.ar    1  UNL1       -0.0041
     26 C          63.3108   82.4690   11.4434 C.3     1  UNL1        0.1063
     27 C          63.3363   81.3543   10.4401 C.3     1  UNL1        0.0129
     28 C          63.1893   81.0455   11.9006 C.3     1  UNL1        0.0129
     29 C          63.4590   83.6475   10.5274 C.3     1  UNL1        0.4006
     30 F          63.6074   84.8259    9.6112 F       1  UNL1       -0.1697
     31 F          62.1404   84.1822   11.0018 F       1  UNL1       -0.1697
     32 F          64.7777   83.1127   10.0529 F       1  UNL1       -0.1697
@<TRIPOS>BOND
     1    17    18    3
     2    18    11    1
     3    11    12   ar
     4    12    13   ar
     5    13    14   ar
     6    14    10    1
     7    10     5    1
     8     5     6   ar
     9     6     7   ar
    10     7     8   ar
    11     8     1    1
    12     1     2   am
    13     2     3    2
    14     2    19    1
    15    19    20    1
    16    20    21   ar
    17    21    22   ar
    18    22    23   ar
    19    23    26    1
    20    26    29    1
    21    29    30    1
    22    29    31    1
    23    29    32    1
    24    26    27    1
    25    27    28    1
    26    23    24   ar
    27    24    25   ar
    28     8     9   ar
    29    14    15   ar
    30    15    16   ar
    31    16    11   ar
    32     9     5   ar
    33    25    20   ar
    34    28    26    1
    35     1     4    1
@<TRIPOS>MOLECULE
*****
 32 35 0 0 0
SMALL
GASTEIGER

@<TRIPOS>ATOM
      1 N          63.5243   87.8349   15.6277 N.am    1  UNL1       -0.2677
      2 C          63.1429   87.0794   16.8661 C.2     1  UNL1        0.2316
      3 O          63.1216   87.7772   18.1936 O.2     1  UNL1       -0.2744
      4 H          63.5382   87.3768   14.7563 H       1  UNL1        0.1563
      5 N          65.0260   91.4069   15.4026 N.ar    1  UNL1       -0.2421
      6 C          63.8514   91.6427   16.3052 C.ar    1  UNL1        0.0985
      7 C          63.1458   90.3332   16.4994 C.ar    1  UNL1        0.0564
      8 C          63.8844   89.2882   15.7168 C.ar    1  UNL1        0.1555
      9 N          65.0464   89.9517   15.0389 N.ar    1  UNL1       -0.1536
     10 C          66.0078   92.4441   14.9441 C.3     1  UNL1        0.1728
     11 C          67.7458   92.2208   10.7993 C.ar    1  UNL1        0.0875
     12 C          66.3478   92.7257   11.0001 C.ar    1  UNL1        0.0131
     13 C          65.7684   92.8002   12.3817 C.ar    1  UNL1        0.0174
     14 C          66.5872   92.3697   13.5625 C.ar    1  UNL1        0.0837
     15 N          67.9852   91.8647   13.3617 N.ar    1  UNL1       -0.2454
     16 C          68.5646   91.7902   11.9801 C.ar    1  UNL1        0.1087
     17 N          68.9045   92.0719    8.0361 N.1     1  UNL1       -0.1908
     18 C          68.3252   92.1463    9.4177 C.1     1  UNL1        0.1020
     19 C          62.7827   85.6260   16.7770 C.3     1  UNL1        0.1117
     20 C          63.0588   84.8608   15.5168 C.ar    1  UNL1       -0.0131
     21 C          64.4321   84.8795   14.9137 C.ar    1  UNL1       -0.0041
     22 C          64.7082   84.1142   13.6534 C.ar    1  UNL1       -0.0043
     23 C          63.6111   83.3304   12.9963 C.ar    1  UNL1       -0.0149
     24 C          62.2378   83.3117   13.5994 C.ar    1  UNL1       -0.0043
     25 C          61.9617   84.0769   14.8596 C.ar    1  UNL1       -0.0041
     26 C          63.8873   82.5651   11.7360 C.3     1  UNL1        0.1063
     27 C          64.3559   82.2655   10.3430 C.3     1  UNL1        0.0129
     28 C          64.5374   83.6398   10.9160 C.3     1  UNL1        0.0129
     29 C          63.3331   81.2247   12.1184 C.3     1  UNL1        0.4006
     30 F          62.7788   79.8844   12.5006 F       1  UNL1       -0.1697
     31 F          64.3391   81.1248   13.2264 F       1  UNL1       -0.1697
     32 F          62.3270   81.3247   11.0102 F       1  UNL1       -0.1697
@<TRIPOS>BOND
     1    17    18    3
     2    18    11    1
     3    11    12   ar
     4    12    13   ar
     5    13    14   ar
     6    14    10    1
     7    10     5    1
     8     5     6   ar
     9     6     7   ar
    10     7     8   ar
    11     8     1    1
    12     1     2   am
    13     2     3    2
    14     2    19    1
    15    19    20    1
    16    20    21   ar
    17    21    22   ar
    18    22    23   ar
    19    23    26    1
    20    26    29    1
    21    29    30    1
    22    29    31    1
    23    29    32    1
    24    26    27    1
    25    27    28    1
    26    23    24   ar
    27    24    25   ar
    28     8     9   ar
    29    14    15   ar
    30    15    16   ar
    31    16    11   ar
    32     9     5   ar
    33    25    20   ar
    34    28    26    1
    35     1     4    1
@<TRIPOS>MOLECULE
*****
 32 35 0 0 0
SMALL
GASTEIGER

@<TRIPOS>ATOM
      1 N          64.2038   88.1880   14.7791 N.am    1  UNL1       -0.2677
      2 C          63.5846   87.9928   16.1313 C.2     1  UNL1        0.2316
      3 O          63.1883   89.1830   16.9536 O.2     1  UNL1       -0.2744
      4 H          64.4639   87.4068   14.2394 H       1  UNL1        0.1563
      5 N          65.4396   91.7264   13.7704 N.ar    1  UNL1       -0.2421
      6 C          64.0999   91.6844   13.0970 C.ar    1  UNL1        0.0985
      7 C          63.4739   90.3537   13.3929 C.ar    1  UNL1        0.0564
      8 C          64.4267   89.5734   14.2492 C.ar    1  UNL1        0.1555
      9 N          65.6416   90.4217   14.4825 N.ar    1  UNL1       -0.1536
     10 C          66.4074   92.8720   13.7376 C.3     1  UNL1        0.1728
     11 C          66.9376   95.2620    9.9618 C.ar    1  UNL1        0.0875
     12 C          66.2139   95.8592   11.1320 C.ar    1  UNL1        0.0131
     13 C          66.0371   95.0625   12.3906 C.ar    1  UNL1        0.0174
     14 C          66.5841   93.6686   12.4790 C.ar    1  UNL1        0.0837
     15 N          67.3078   93.0714   11.3087 N.ar    1  UNL1       -0.2454
     16 C          67.4846   93.8681   10.0501 C.ar    1  UNL1        0.1087
     17 N          67.2910   96.8554    7.4446 N.1     1  UNL1       -0.1908
     18 C          67.1143   96.0587    8.7032 C.1     1  UNL1        0.1020
     19 C          63.3617   86.6073   16.6612 C.3     1  UNL1        0.1117
     20 C          63.3540   85.4375   15.7224 C.ar    1  UNL1       -0.0131
     21 C          64.5966   85.0768   14.9634 C.ar    1  UNL1       -0.0041
     22 C          64.5889   83.9069   14.0245 C.ar    1  UNL1       -0.0043
     23 C          63.3388   83.0978   13.8448 C.ar    1  UNL1       -0.0149
     24 C          62.0963   83.4584   14.6038 C.ar    1  UNL1       -0.0043
     25 C          62.1039   84.6282   15.5426 C.ar    1  UNL1       -0.0041
     26 C          63.3312   81.9279   12.9059 C.3     1  UNL1        0.1063
     27 C          63.7177   81.0329   11.7659 C.3     1  UNL1        0.0129
     28 C          64.4634   82.3131   12.0005 C.3     1  UNL1        0.0129
     29 C          62.1964   81.1363   13.4852 C.3     1  UNL1        0.4006
     30 F          61.0614   80.3448   14.0643 F       1  UNL1       -0.1697
     31 F          63.1293   80.5388   14.4963 F       1  UNL1       -0.1697
     32 F          61.2634   81.7339   12.4739 F       1  UNL1       -0.1697
@<TRIPOS>BOND
     1    17    18    3
     2    18    11    1
     3    11    12   ar
     4    12    13   ar
     5    13    14   ar
     6    14    10    1
     7    10     5    1
     8     5     6   ar
     9     6     7   ar
    10     7     8   ar
    11     8     1    1
    12     1     2   am
    13     2     3    2
    14     2    19    1
    15    19    20    1
    16    20    21   ar
    17    21    22   ar
    18    22    23   ar
    19    23    26    1
    20    26    29    1
    21    29    30    1
    22    29    31    1
    23    29    32    1
    24    26    27    1
    25    27    28    1
    26    23    24   ar
    27    24    25   ar
    28     8     9   ar
    29    14    15   ar
    30    15    16   ar
    31    16    11   ar
    32     9     5   ar
    33    25    20   ar
    34    28    26    1
    35     1     4    1
@<TRIPOS>MOLECULE
*****
 32 35 0 0 0
SMALL
GASTEIGER

@<TRIPOS>ATOM
      1 N          59.8779   89.8507    8.1365 N.am    1  UNL1       -0.2677
      2 C          59.4073   89.5995    6.7346 C.2     1  UNL1        0.2316
      3 O          59.4404   88.2103    6.1700 O.2     1  UNL1       -0.2744
      4 H          59.8562   90.7625    8.5071 H       1  UNL1        0.1563
      5 N          61.6900   87.4063   10.5462 N.ar    1  UNL1       -0.2421
      6 C          60.6240   86.5166    9.9785 C.ar    1  UNL1        0.0985
      7 C          59.8154   87.3241    9.0067 C.ar    1  UNL1        0.0564
      8 C          60.3817   88.7127    8.9738 C.ar    1  UNL1        0.1555
      9 N          61.5402   88.7635    9.9252 N.ar    1  UNL1       -0.1536
     10 C          62.7241   87.0085   11.5573 C.3     1  UNL1        0.1728
     11 C          62.8704   82.7769   13.0810 C.ar    1  UNL1        0.0875
     12 C          62.9413   83.0462   11.6071 C.ar    1  UNL1        0.0131
     13 C          62.8925   84.4567   11.0992 C.ar    1  UNL1        0.0174
     14 C          62.7729   85.5980   12.0652 C.ar    1  UNL1        0.0837
     15 N          62.7020   85.3287   13.5391 N.ar    1  UNL1       -0.2454
     16 C          62.7507   83.9181   14.0470 C.ar    1  UNL1        0.1087
     17 N          62.9679   79.9558   14.0968 N.1     1  UNL1       -0.1908
     18 C          62.9192   81.3663   13.5889 C.1     1  UNL1        0.1020
     19 C          58.9035   90.7375    5.8973 C.3     1  UNL1        0.1117
     20 C          59.7713   91.3177    4.8202 C.ar    1  UNL1       -0.0131
     21 C          61.1875   90.8487    4.6641 C.ar    1  UNL1       -0.0041
     22 C          62.0554   91.4290    3.5869 C.ar    1  UNL1       -0.0043
     23 C          61.5069   92.4781    2.6659 C.ar    1  UNL1       -0.0149
     24 C          60.0907   92.9472    2.8220 C.ar    1  UNL1       -0.0043
     25 C          59.2229   92.3670    3.8991 C.ar    1  UNL1       -0.0041
     26 C          62.3748   93.0584    1.5887 C.3     1  UNL1        0.1063
     27 C          63.5766   93.6474    0.9114 C.3     1  UNL1        0.0129
     28 C          63.6377   93.2854    2.3658 C.3     1  UNL1        0.0129
     29 C          61.4135   93.0329    0.4376 C.3     1  UNL1        0.4006
     30 F          60.4522   93.0072   -0.7135 F       1  UNL1       -0.1697
     31 F          61.3374   94.5306    0.4680 F       1  UNL1       -0.1697
     32 F          61.4896   91.5351    0.4073 F       1  UNL1       -0.1697
@<TRIPOS>BOND
     1    17    18    3
     2    18    11    1
     3    11    12   ar
     4    12    13   ar
     5    13    14   ar
     6    14    10    1
     7    10     5    1
     8     5     6   ar
     9     6     7   ar
    10     7     8   ar
    11     8     1    1
    12     1     2   am
    13     2     3    2
    14     2    19    1
    15    19    20    1
    16    20    21   ar
    17    21    22   ar
    18    22    23   ar
    19    23    26    1
    20    26    29    1
    21    29    30    1
    22    29    31    1
    23    29    32    1
    24    26    27    1
    25    27    28    1
    26    23    24   ar
    27    24    25   ar
    28     8     9   ar
    29    14    15   ar
    30    15    16   ar
    31    16    11   ar
    32     9     5   ar
    33    25    20   ar
    34    28    26    1
    35     1     4    1
@<TRIPOS>MOLECULE
*****
 32 35 0 0 0
SMALL
GASTEIGER

@<TRIPOS>ATOM
      1 N          60.5438   90.6617    5.4607 N.am    1  UNL1       -0.2677
      2 C          59.0570   90.5794    5.6406 C.2     1  UNL1        0.2316
      3 O          58.1442   91.2488    4.6564 O.2     1  UNL1       -0.2744
      4 H          61.1429   90.2223    6.1066 H       1  UNL1        0.1563
      5 N          61.3614   92.9553    2.4380 N.ar    1  UNL1       -0.2421
      6 C          62.6416   92.1851    2.5720 C.ar    1  UNL1        0.0985
      7 C          62.4912   91.2321    3.7207 C.ar    1  UNL1        0.0564
      8 C          61.1179   91.4134    4.2966 C.ar    1  UNL1        0.1555
      9 N          60.4197   92.4783    3.5038 N.ar    1  UNL1       -0.1536
     10 C          61.0734   94.0161    1.4174 C.3     1  UNL1        0.1728
     11 C          58.8136   92.9764   -2.3326 C.ar    1  UNL1        0.0875
     12 C          60.2099   93.5168   -2.4238 C.ar    1  UNL1        0.0131
     13 C          60.9631   93.8634   -1.1738 C.ar    1  UNL1        0.0174
     14 C          60.3201   93.6696    0.1674 C.ar    1  UNL1        0.0837
     15 N          58.9239   93.1291    0.2587 N.ar    1  UNL1       -0.2454
     16 C          58.1706   92.7826   -0.9913 C.ar    1  UNL1        0.1087
     17 N          57.3071   92.2832   -4.8326 N.1     1  UNL1       -0.1908
     18 C          58.0604   92.6298   -3.5826 C.1     1  UNL1        0.1020
     19 C          58.4828   89.8277    6.8048 C.3     1  UNL1        0.1117
     20 C          59.3440   88.8766    7.5817 C.ar    1  UNL1       -0.0131
     21 C          60.2538   89.3950    8.6558 C.ar    1  UNL1       -0.0041
     22 C          61.1151   88.4438    9.4328 C.ar    1  UNL1       -0.0043
     23 C          61.0665   86.9744    9.1356 C.ar    1  UNL1       -0.0149
     24 C          60.1567   86.4560    8.0616 C.ar    1  UNL1       -0.0043
     25 C          59.2955   87.4071    7.2846 C.ar    1  UNL1       -0.0041
     26 C          61.9278   86.0233    9.9127 C.3     1  UNL1        0.1063
     27 C          62.4794   85.2460   11.0709 C.3     1  UNL1        0.0129
     28 C          61.3353   86.1933   11.2802 C.3     1  UNL1        0.0129
     29 C          62.8193   85.5230    8.8150 C.3     1  UNL1        0.4006
     30 F          63.7109   85.0228    7.7174 F       1  UNL1       -0.1697
     31 F          62.3578   84.1205    9.0795 F       1  UNL1       -0.1697
     32 F          63.2808   86.9256    8.5506 F       1  UNL1       -0.1697
@<TRIPOS>BOND
     1    17    18    3
     2    18    11    1
     3    11    12   ar
     4    12    13   ar
     5    13    14   ar
     6    14    10    1
     7    10     5    1
     8     5     6   ar
     9     6     7   ar
    10     7     8   ar
    11     8     1    1
    12     1     2   am
    13     2     3    2
    14     2    19    1
    15    19    20    1
    16    20    21   ar
    17    21    22   ar
    18    22    23   ar
    19    23    26    1
    20    26    29    1
    21    29    30    1
    22    29    31    1
    23    29    32    1
    24    26    27    1
    25    27    28    1
    26    23    24   ar
    27    24    25   ar
    28     8     9   ar
    29    14    15   ar
    30    15    16   ar
    31    16    11   ar
    32     9     5   ar
    33    25    20   ar
    34    28    26    1
    35     1     4    1
@<TRIPOS>MOLECULE
*****
 32 35 0 0 0
SMALL
GASTEIGER

@<TRIPOS>ATOM
      1 N          60.6436   90.5896    5.3808 N.am    1  UNL1       -0.2677
      2 C          59.1531   90.5888    5.5494 C.2     1  UNL1        0.2316
      3 O          58.2896   91.3549    4.5917 O.2     1  UNL1       -0.2744
      4 H          61.2104   90.0867    6.0094 H       1  UNL1        0.1563
      5 N          61.6134   92.9511    2.4570 N.ar    1  UNL1       -0.2421
      6 C          62.8574   92.1228    2.5855 C.ar    1  UNL1        0.0985
      7 C          62.6455   91.1373    3.6964 C.ar    1  UNL1        0.0564
      8 C          61.2705   91.3566    4.2545 C.ar    1  UNL1        0.1555
      9 N          60.6327   92.4775    3.4886 N.ar    1  UNL1       -0.1536
     10 C          61.3894   94.0584    1.4704 C.3     1  UNL1        0.1728
     11 C          63.5373   94.0176   -2.4837 C.ar    1  UNL1        0.0875
     12 C          62.1953   93.3605   -2.3524 C.ar    1  UNL1        0.0131
     13 C          61.4793   93.3742   -1.0344 C.ar    1  UNL1        0.0174
     14 C          62.1053   94.0448    0.1523 C.ar    1  UNL1        0.0837
     15 N          63.4474   94.7018    0.0210 N.ar    1  UNL1       -0.2454
     16 C          64.1633   94.6882   -1.2970 C.ar    1  UNL1        0.1087
     17 N          64.9693   93.9903   -5.1198 N.1     1  UNL1       -0.1908
     18 C          64.2533   94.0039   -3.8017 C.1     1  UNL1        0.1020
     19 C          58.5262   89.8218    6.6757 C.3     1  UNL1        0.1117
     20 C          59.3612   88.8940    7.5075 C.ar    1  UNL1       -0.0131
     21 C          60.2386   89.4440    8.5927 C.ar    1  UNL1       -0.0041
     22 C          61.0737   88.5161    9.4245 C.ar    1  UNL1       -0.0043
     23 C          61.0312   87.0384    9.1711 C.ar    1  UNL1       -0.0149
     24 C          60.1537   86.4883    8.0860 C.ar    1  UNL1       -0.0043
     25 C          59.3187   87.4161    7.2542 C.ar    1  UNL1       -0.0041
     26 C          61.8663   86.1105   10.0030 C.3     1  UNL1        0.1063
     27 C          62.3971   85.3872   11.2051 C.3     1  UNL1        0.0129
     28 C          61.2804   86.3770   11.3580 C.3     1  UNL1        0.0129
     29 C          62.7421   85.5219    8.9371 C.3     1  UNL1        0.4006
     30 F          63.6179   84.9331    7.8711 F       1  UNL1       -0.1697
     31 F          63.1628   86.9003    8.5215 F       1  UNL1       -0.1697
     32 F          62.3213   84.1433    9.3527 F       1  UNL1       -0.1697
@<TRIPOS>BOND
     1    17    18    3
     2    18    11    1
     3    11    12   ar
     4    12    13   ar
     5    13    14   ar
     6    14    10    1
     7    10     5    1
     8     5     6   ar
     9     6     7   ar
    10     7     8   ar
    11     8     1    1
    12     1     2   am
    13     2     3    2
    14     2    19    1
    15    19    20    1
    16    20    21   ar
    17    21    22   ar
    18    22    23   ar
    19    23    26    1
    20    26    29    1
    21    29    30    1
    22    29    31    1
    23    29    32    1
    24    26    27    1
    25    27    28    1
    26    23    24   ar
    27    24    25   ar
    28     8     9   ar
    29    14    15   ar
    30    15    16   ar
    31    16    11   ar
    32     9     5   ar
    33    25    20   ar
    34    28    26    1
    35     1     4    1
