@<TRIPOS>MOLECULE
*****
 38 42 0 0 0
SMALL
GASTEIGER

@<TRIPOS>ATOM
      1 C          60.7536   88.2985    9.2958 C.ar    1  UNL1        0.1350
      2 C          60.3947   89.3340    8.2717 C.ar    1  UNL1        0.0535
      3 C          59.4166   89.0047    7.1832 C.ar    1  UNL1        0.0859
      4 N          58.7974   87.6400    7.1188 N.ar    1  UNL1       -0.2239
      5 C          59.1563   86.6045    8.1430 C.ar    1  UNL1        0.2000
      6 N          60.1344   86.9338    9.2315 N.ar    1  UNL1       -0.2090
      7 N          63.8579   87.8960   13.5482 N.3     1  UNL1       -0.3205
      8 C          63.1586   88.4427   12.3390 C.3     1  UNL1        0.0766
      9 C          62.1800   87.7022   11.4764 C.3     1  UNL1        0.1079
     10 N          61.7317   88.6277   10.3844 N.pl3   1  UNL1       -0.2914
     11 C          62.4332   89.9402   10.5721 C.3     1  UNL1        0.0980
     12 C          63.3150   89.8259   11.7801 C.3     1  UNL1        0.0602
     13 H          63.5667   86.9306   13.7019 H       1  UNL1        0.1189
     14 H          63.6159   88.4582   14.3641 H       1  UNL1        0.1189
     15 C          64.1983   90.9053   12.3323 C.ar    1  UNL1        0.0103
     16 C          64.6074   90.8747   13.7751 C.ar    1  UNL1        0.0300
     17 C          65.4906   91.9541   14.3272 C.ar    1  UNL1        0.1672
     18 F          65.8997   91.9235   15.7700 F       1  UNL1       -0.2018
     19 C          65.9648   93.0639   13.4366 C.ar    1  UNL1        0.1696
     20 F          66.8480   94.1433   13.9888 F       1  UNL1       -0.2017
     21 C          65.5557   93.0945   11.9937 C.ar    1  UNL1        0.0612
     22 C          64.6725   92.0152   11.4416 C.ar    1  UNL1        0.1386
     23 F          64.2634   92.0457    9.9987 F       1  UNL1       -0.2044
     24 C          59.0577   90.0402    6.1589 C.ar    1  UNL1        0.0191
     25 C          57.6297   90.4688    5.9943 C.ar    1  UNL1        0.0016
     26 C          57.2707   91.5042    4.9702 C.ar    1  UNL1        0.0014
     27 C          58.3397   92.1111    4.1105 C.ar    1  UNL1        0.0199
     28 C          59.7677   91.6824    4.2751 C.ar    1  UNL1        0.1222
     29 C          60.1267   90.6469    5.2993 C.ar    1  UNL1        0.0214
     30 S          60.8368   92.2892    3.4155 S.O2    1  UNL1        0.0634
     31 O          61.8708   91.4567    4.1138 O.2     1  UNL1       -0.1528
     32 O          59.8027   93.1217    2.7171 O.2     1  UNL1       -0.1528
     33 N          61.9058   92.8960    2.5559 N.3     1  UNL1       -0.1504
     34 C          61.6208   94.1436    1.7734 C.3     1  UNL1        0.1279
     35 C          62.6898   94.7504    0.9138 C.3     1  UNL1        0.1613
     36 O          64.0439   94.1096    0.8366 O.3     1  UNL1       -0.3507
     37 C          64.3289   92.8620    1.6191 C.3     1  UNL1        0.1613
     38 C          63.2598   92.2552    2.4787 C.3     1  UNL1        0.1279
@<TRIPOS>BOND
     1     7     8    1
     2     8     9    1
     3     9    10    1
     4    10     1    1
     5     1     2   ar
     6     2     3   ar
     7     3    24    1
     8    24    25   ar
     9    25    26   ar
    10    26    27   ar
    11    27    28   ar
    12    28    30    1
    13    30    31    2
    14    30    32    2
    15    30    33    1
    16    33    34    1
    17    34    35    1
    18    35    36    1
    19    36    37    1
    20    37    38    1
    21    28    29   ar
    22     3     4   ar
    23     4     5   ar
    24     5     6   ar
    25    10    11    1
    26    11    12    1
    27    12    15    1
    28    15    16   ar
    29    16    17   ar
    30    17    18    1
    31    17    19   ar
    32    19    20    1
    33    19    21   ar
    34    21    22   ar
    35    22    23    1
    36    12     8    1
    37    22    15   ar
    38     6     1   ar
    39    29    24   ar
    40    38    33    1
    41     7    13    1
    42     7    14    1
@<TRIPOS>MOLECULE
*****
 38 42 0 0 0
SMALL
GASTEIGER

@<TRIPOS>ATOM
      1 C          63.8097   88.1308   15.3101 C.ar    1  UNL1        0.1350
      2 C          64.8941   89.0317   14.7978 C.ar    1  UNL1        0.0535
      3 C          64.8274   90.5077   15.0563 C.ar    1  UNL1        0.0859
      4 N          63.6764   91.0828   15.8272 N.ar    1  UNL1       -0.2239
      5 C          62.5920   90.1820   16.3396 C.ar    1  UNL1        0.2000
      6 N          62.6586   88.7060   16.0810 N.ar    1  UNL1       -0.2090
      7 N          64.5228   82.9422   15.9812 N.3     1  UNL1       -0.3205
      8 C          64.2041   84.2698   15.3601 C.3     1  UNL1        0.0766
      9 C          64.2800   85.6034   16.0424 C.3     1  UNL1        0.1079
     10 N          63.8763   86.6547   15.0515 N.pl3   1  UNL1       -0.2914
     11 C          63.5510   85.9708   13.7568 C.3     1  UNL1        0.0980
     12 C          63.7536   84.4969   13.9474 C.3     1  UNL1        0.0602
     13 H          64.8037   83.0797   16.9521 H       1  UNL1        0.1189
     14 H          65.2843   82.5000   15.4664 H       1  UNL1        0.1189
     15 C          63.5427   83.4362   12.9079 C.ar    1  UNL1        0.0103
     16 C          64.2931   83.4977   11.6106 C.ar    1  UNL1        0.0300
     17 C          64.0821   82.4370   10.5711 C.ar    1  UNL1        0.1672
     18 F          64.8325   82.4986    9.2738 F       1  UNL1       -0.2018
     19 C          63.1209   81.3149   10.8291 C.ar    1  UNL1        0.1696
     20 F          62.9100   80.2542    9.7896 F       1  UNL1       -0.2017
     21 C          62.3705   81.2533   12.1265 C.ar    1  UNL1        0.0612
     22 C          62.5814   82.3139   13.1658 C.ar    1  UNL1        0.1386
     23 F          61.8310   82.2524   14.4633 F       1  UNL1       -0.2044
     24 C          65.9118   91.4086   14.5440 C.ar    1  UNL1        0.0191
     25 C          67.2382   91.4582   15.2427 C.ar    1  UNL1        0.0016
     26 C          68.3226   92.3590   14.7304 C.ar    1  UNL1        0.0014
     27 C          68.0806   93.2105   13.5193 C.ar    1  UNL1        0.0199
     28 C          66.7542   93.1609   12.8206 C.ar    1  UNL1        0.1222
     29 C          65.6698   92.2600   13.3330 C.ar    1  UNL1        0.0214
     30 S          66.5122   94.0122   11.6096 S.O2    1  UNL1        0.0634
     31 O          66.0747   95.1434   12.4922 O.2     1  UNL1       -0.1528
     32 O          66.9498   92.8811   10.7270 O.2     1  UNL1       -0.1528
     33 N          66.2702   94.8636   10.3986 N.3     1  UNL1       -0.1504
     34 C          66.9997   94.5740    9.1202 C.3     1  UNL1        0.1279
     35 C          66.7577   95.4253    7.9092 C.3     1  UNL1        0.1613
     36 O          65.7862   96.5663    7.9764 O.3     1  UNL1       -0.3507
     37 C          65.0568   96.8559    9.2547 C.3     1  UNL1        0.1613
     38 C          65.2988   96.0045   10.4658 C.3     1  UNL1        0.1279
@<TRIPOS>BOND
     1     7     8    1
     2     8     9    1
     3     9    10    1
     4    10     1    1
     5     1     2   ar
     6     2     3   ar
     7     3    24    1
     8    24    25   ar
     9    25    26   ar
    10    26    27   ar
    11    27    28   ar
    12    28    30    1
    13    30    31    2
    14    30    32    2
    15    30    33    1
    16    33    34    1
    17    34    35    1
    18    35    36    1
    19    36    37    1
    20    37    38    1
    21    28    29   ar
    22     3     4   ar
    23     4     5   ar
    24     5     6   ar
    25    10    11    1
    26    11    12    1
    27    12    15    1
    28    15    16   ar
    29    16    17   ar
    30    17    18    1
    31    17    19   ar
    32    19    20    1
    33    19    21   ar
    34    21    22   ar
    35    22    23    1
    36    12     8    1
    37    22    15   ar
    38     6     1   ar
    39    29    24   ar
    40    38    33    1
    41     7    13    1
    42     7    14    1
@<TRIPOS>MOLECULE
*****
 38 42 0 0 0
SMALL
GASTEIGER

@<TRIPOS>ATOM
      1 C          59.9284   91.6131    4.1704 C.ar    1  UNL1        0.1350
      2 C          60.2816   90.6333    5.2498 C.ar    1  UNL1        0.0535
      3 C          59.2211   90.1335    6.1854 C.ar    1  UNL1        0.0859
      4 N          57.8073   90.6135    6.0416 N.ar    1  UNL1       -0.2239
      5 C          57.4540   91.5933    4.9621 C.ar    1  UNL1        0.2000
      6 N          58.5145   92.0931    4.0265 N.ar    1  UNL1       -0.2090
      7 N          64.6224   92.5538    1.9427 N.3     1  UNL1       -0.3205
      8 C          63.1466   92.5453    2.2108 C.3     1  UNL1        0.0766
      9 C          62.4627   91.8618    3.3576 C.3     1  UNL1        0.1079
     10 N          60.9889   92.1129    3.2347 N.pl3   1  UNL1       -0.2914
     11 C          60.7620   92.9516    2.0119 C.3     1  UNL1        0.0980
     12 C          62.0954   93.2188    1.3791 C.3     1  UNL1        0.0602
     13 H          65.1024   92.0180    2.6658 H       1  UNL1        0.1189
     14 H          64.9635   93.5150    1.9488 H       1  UNL1        0.1189
     15 C          62.3356   94.0190    0.1333 C.ar    1  UNL1        0.0103
     16 C          61.9297   93.4685   -1.2016 C.ar    1  UNL1        0.0300
     17 C          62.1699   94.2687   -2.4474 C.ar    1  UNL1        0.1672
     18 F          61.7639   93.7182   -3.7824 F       1  UNL1       -0.2018
     19 C          62.8160   95.6194   -2.3582 C.ar    1  UNL1        0.1696
     20 F          63.0562   96.4196   -3.6040 F       1  UNL1       -0.2017
     21 C          63.2221   96.1700   -1.0232 C.ar    1  UNL1        0.0612
     22 C          62.9818   95.3697    0.2225 C.ar    1  UNL1        0.1386
     23 F          63.3878   95.9202    1.5575 F       1  UNL1       -0.2044
     24 C          59.5743   89.1537    7.2649 C.ar    1  UNL1        0.0191
     25 C          59.0058   87.7660    7.2335 C.ar    1  UNL1        0.0016
     26 C          59.3590   86.7862    8.3129 C.ar    1  UNL1        0.0014
     27 C          60.2808   87.1941    9.4238 C.ar    1  UNL1        0.0199
     28 C          60.8493   88.5818    9.4552 C.ar    1  UNL1        0.1222
     29 C          60.4961   89.5617    8.3757 C.ar    1  UNL1        0.0214
     30 S          61.7711   88.9898   10.5660 S.O2    1  UNL1        0.0634
     31 O          61.3846   87.7627   11.3373 O.2     1  UNL1       -0.1528
     32 O          62.1576   90.2168    9.7947 O.2     1  UNL1       -0.1528
     33 N          62.6928   89.3977   11.6768 N.3     1  UNL1       -0.1504
     34 C          63.2235   88.3663   12.6280 C.3     1  UNL1        0.1279
     35 C          64.1452   88.7742   13.7388 C.3     1  UNL1        0.1613
     36 O          64.5364   90.2135   13.8985 O.3     1  UNL1       -0.3507
     37 C          64.0058   91.2449   12.9474 C.3     1  UNL1        0.1613
     38 C          63.0840   90.8370   11.8365 C.3     1  UNL1        0.1279
@<TRIPOS>BOND
     1     7     8    1
     2     8     9    1
     3     9    10    1
     4    10     1    1
     5     1     2   ar
     6     2     3   ar
     7     3    24    1
     8    24    25   ar
     9    25    26   ar
    10    26    27   ar
    11    27    28   ar
    12    28    30    1
    13    30    31    2
    14    30    32    2
    15    30    33    1
    16    33    34    1
    17    34    35    1
    18    35    36    1
    19    36    37    1
    20    37    38    1
    21    28    29   ar
    22     3     4   ar
    23     4     5   ar
    24     5     6   ar
    25    10    11    1
    26    11    12    1
    27    12    15    1
    28    15    16   ar
    29    16    17   ar
    30    17    18    1
    31    17    19   ar
    32    19    20    1
    33    19    21   ar
    34    21    22   ar
    35    22    23    1
    36    12     8    1
    37    22    15   ar
    38     6     1   ar
    39    29    24   ar
    40    38    33    1
    41     7    13    1
    42     7    14    1
@<TRIPOS>MOLECULE
*****
 38 42 0 0 0
SMALL
GASTEIGER

@<TRIPOS>ATOM
      1 C          62.5370   86.6414   12.3612 C.ar    1  UNL1        0.1350
      2 C          63.4272   87.7465   12.8473 C.ar    1  UNL1        0.0535
      3 C          63.1063   89.1720   12.5084 C.ar    1  UNL1        0.0859
      4 N          61.8951   89.4924   11.6834 N.ar    1  UNL1       -0.2239
      5 C          61.0050   88.3873   11.1974 C.ar    1  UNL1        0.2000
      6 N          61.3259   86.9618   11.5363 N.ar    1  UNL1       -0.2090
      7 N          64.3326   82.3591   14.8750 N.3     1  UNL1       -0.3205
      8 C          63.6833   83.2475   13.8556 C.3     1  UNL1        0.0766
      9 C          63.5829   84.7425   13.9251 C.3     1  UNL1        0.1079
     10 N          62.8580   85.2158   12.7001 N.pl3   1  UNL1       -0.2914
     11 C          62.5103   84.0134   11.8737 C.3     1  UNL1        0.0980
     12 C          63.0203   82.7969   12.5878 C.3     1  UNL1        0.0602
     13 H          64.7027   82.9287   15.6360 H       1  UNL1        0.1189
     14 H          65.0939   81.8398   14.4378 H       1  UNL1        0.1189
     15 C          62.8903   81.3787   12.1167 C.ar    1  UNL1        0.0103
     16 C          63.2564   81.0200   10.7070 C.ar    1  UNL1        0.0300
     17 C          63.1264   79.6019   10.2360 C.ar    1  UNL1        0.1672
     18 F          63.4925   79.2432    8.8263 F       1  UNL1       -0.2018
     19 C          62.6302   78.5424   11.1747 C.ar    1  UNL1        0.1696
     20 F          62.5002   77.1242   10.7036 F       1  UNL1       -0.2017
     21 C          62.2641   78.9010   12.5845 C.ar    1  UNL1        0.0612
     22 C          62.3942   80.3191   13.0554 C.ar    1  UNL1        0.1386
     23 F          62.0280   80.6778   14.4652 F       1  UNL1       -0.2044
     24 C          63.9965   90.2772   12.9944 C.ar    1  UNL1        0.0191
     25 C          64.3361   90.3807   14.4518 C.ar    1  UNL1        0.0016
     26 C          65.2263   91.4858   14.9378 C.ar    1  UNL1        0.0014
     27 C          65.7768   92.4876   13.9665 C.ar    1  UNL1        0.0199
     28 C          65.4372   92.3841   12.5091 C.ar    1  UNL1        0.1222
     29 C          64.5469   91.2789   12.0231 C.ar    1  UNL1        0.0214
     30 S          65.9876   93.3858   11.5378 S.O2    1  UNL1        0.0634
     31 O          66.8919   93.9249   12.6062 O.2     1  UNL1       -0.1528
     32 O          65.0833   92.8468   10.4693 O.2     1  UNL1       -0.1528
     33 N          66.5381   94.3876   10.5665 N.3     1  UNL1       -0.1504
     34 C          67.1284   93.9261    9.2669 C.3     1  UNL1        0.1279
     35 C          67.6788   94.9278    8.2956 C.3     1  UNL1        0.1613
     36 O          67.6391   96.3910    8.6237 O.3     1  UNL1       -0.3507
     37 C          67.0489   96.8524    9.9232 C.3     1  UNL1        0.1613
     38 C          66.4984   95.8507   10.8946 C.3     1  UNL1        0.1279
@<TRIPOS>BOND
     1     7     8    1
     2     8     9    1
     3     9    10    1
     4    10     1    1
     5     1     2   ar
     6     2     3   ar
     7     3    24    1
     8    24    25   ar
     9    25    26   ar
    10    26    27   ar
    11    27    28   ar
    12    28    30    1
    13    30    31    2
    14    30    32    2
    15    30    33    1
    16    33    34    1
    17    34    35    1
    18    35    36    1
    19    36    37    1
    20    37    38    1
    21    28    29   ar
    22     3     4   ar
    23     4     5   ar
    24     5     6   ar
    25    10    11    1
    26    11    12    1
    27    12    15    1
    28    15    16   ar
    29    16    17   ar
    30    17    18    1
    31    17    19   ar
    32    19    20    1
    33    19    21   ar
    34    21    22   ar
    35    22    23    1
    36    12     8    1
    37    22    15   ar
    38     6     1   ar
    39    29    24   ar
    40    38    33    1
    41     7    13    1
    42     7    14    1
@<TRIPOS>MOLECULE
*****
 38 42 0 0 0
SMALL
GASTEIGER

@<TRIPOS>ATOM
      1 C          60.8305   88.7752    9.5584 C.ar    1  UNL1        0.1350
      2 C          60.3966   89.7231    8.4799 C.ar    1  UNL1        0.0535
      3 C          59.6895   89.2025    7.2638 C.ar    1  UNL1        0.0859
      4 N          59.4163   87.7340    7.1262 N.ar    1  UNL1       -0.2239
      5 C          59.8503   86.7861    8.2046 C.ar    1  UNL1        0.2000
      6 N          60.5574   87.3067    9.4207 N.ar    1  UNL1       -0.2090
      7 N          62.0106   89.9200   14.5762 N.3     1  UNL1       -0.3205
      8 C          62.0800   89.8219   13.0810 C.3     1  UNL1        0.0766
      9 C          61.0703   89.1570   12.1932 C.3     1  UNL1        0.1079
     10 N          61.5377   89.2957   10.7746 N.pl3   1  UNL1       -0.2914
     11 C          62.8363   90.0463   10.7857 C.3     1  UNL1        0.0980
     12 C          63.1715   90.3716   12.2111 C.3     1  UNL1        0.0602
     13 H          61.1623   89.4609   14.9080 H       1  UNL1        0.1189
     14 H          61.9961   90.9018   14.8522 H       1  UNL1        0.1189
     15 C          64.3851   91.1157   12.6837 C.ar    1  UNL1        0.0103
     16 C          64.7912   92.3930   12.0102 C.ar    1  UNL1        0.0300
     17 C          66.0048   93.1372   12.4829 C.ar    1  UNL1        0.1672
     18 F          66.4108   94.4145   11.8094 F       1  UNL1       -0.2018
     19 C          66.8123   92.6041   13.6289 C.ar    1  UNL1        0.1696
     20 F          68.0259   93.3483   14.1015 F       1  UNL1       -0.2017
     21 C          66.4063   91.3267   14.3025 C.ar    1  UNL1        0.0612
     22 C          65.1927   90.5826   13.8298 C.ar    1  UNL1        0.1386
     23 F          64.7866   89.3052   14.5034 F       1  UNL1       -0.2044
     24 C          59.2554   90.1504    6.1853 C.ar    1  UNL1        0.0191
     25 C          57.7999   90.4643    6.0039 C.ar    1  UNL1        0.0016
     26 C          57.3659   91.4122    4.9254 C.ar    1  UNL1        0.0014
     27 C          58.3874   92.0462    4.0283 C.ar    1  UNL1        0.0199
     28 C          59.8429   91.7323    4.2098 C.ar    1  UNL1        0.1222
     29 C          60.2769   90.7844    5.2883 C.ar    1  UNL1        0.0214
     30 S          60.8644   92.3662    3.3128 S.O2    1  UNL1        0.0634
     31 O          61.9488   91.5895    3.9988 O.2     1  UNL1       -0.1528
     32 O          59.7799   93.1430    2.6269 O.2     1  UNL1       -0.1528
     33 N          61.8859   93.0002    2.4158 N.3     1  UNL1       -0.1504
     34 C          61.5263   94.2126    1.6089 C.3     1  UNL1        0.1279
     35 C          62.5478   94.8465    0.7120 C.3     1  UNL1        0.1613
     36 O          63.9288   94.2682    0.6218 O.3     1  UNL1       -0.3507
     37 C          64.2884   93.0559    1.4286 C.3     1  UNL1        0.1613
     38 C          63.2669   92.4218    2.3256 C.3     1  UNL1        0.1279
@<TRIPOS>BOND
     1     7     8    1
     2     8     9    1
     3     9    10    1
     4    10     1    1
     5     1     2   ar
     6     2     3   ar
     7     3    24    1
     8    24    25   ar
     9    25    26   ar
    10    26    27   ar
    11    27    28   ar
    12    28    30    1
    13    30    31    2
    14    30    32    2
    15    30    33    1
    16    33    34    1
    17    34    35    1
    18    35    36    1
    19    36    37    1
    20    37    38    1
    21    28    29   ar
    22     3     4   ar
    23     4     5   ar
    24     5     6   ar
    25    10    11    1
    26    11    12    1
    27    12    15    1
    28    15    16   ar
    29    16    17   ar
    30    17    18    1
    31    17    19   ar
    32    19    20    1
    33    19    21   ar
    34    21    22   ar
    35    22    23    1
    36    12     8    1
    37    22    15   ar
    38     6     1   ar
    39    29    24   ar
    40    38    33    1
    41     7    13    1
    42     7    14    1
@<TRIPOS>MOLECULE
*****
 38 42 0 0 0
SMALL
GASTEIGER

@<TRIPOS>ATOM
      1 C          63.5064   88.4717   14.3968 C.ar    1  UNL1        0.1350
      2 C          64.4286   89.6155   14.0951 C.ar    1  UNL1        0.0535
      3 C          64.6933   90.6606   15.1380 C.ar    1  UNL1        0.0859
      4 N          64.0356   90.5620   16.4825 N.ar    1  UNL1       -0.2239
      5 C          63.1134   89.4181   16.7842 C.ar    1  UNL1        0.2000
      6 N          62.8487   88.3730   15.7413 N.ar    1  UNL1       -0.2090
      7 N          62.2500   86.1410    9.8284 N.3     1  UNL1       -0.3205
      8 C          62.6642   86.3552   11.2540 C.3     1  UNL1        0.0766
      9 C          62.8107   87.6811   11.9399 C.3     1  UNL1        0.1079
     10 N          63.2417   87.4265   13.3539 N.pl3   1  UNL1       -0.2914
     11 C          63.3615   85.9431   13.5420 C.3     1  UNL1        0.0980
     12 C          63.0046   85.2811   12.2442 C.3     1  UNL1        0.0602
     13 H          62.0792   87.0435    9.3846 H       1  UNL1        0.1189
     14 H          61.3968   85.5826    9.8024 H       1  UNL1        0.1189
     15 C          62.9905   83.8041   11.9825 C.ar    1  UNL1        0.0103
     16 C          62.3126   82.8778   12.9479 C.ar    1  UNL1        0.0300
     17 C          62.2985   81.4008   12.6862 C.ar    1  UNL1        0.1672
     18 F          61.6205   80.4745   13.6517 F       1  UNL1       -0.2018
     19 C          62.9624   80.8503   11.4590 C.ar    1  UNL1        0.1696
     20 F          62.9484   79.3734   11.1973 F       1  UNL1       -0.2017
     21 C          63.6405   81.7767   10.4935 C.ar    1  UNL1        0.0612
     22 C          63.6545   83.2535   10.7553 C.ar    1  UNL1        0.1386
     23 F          64.3325   84.1800    9.7897 F       1  UNL1       -0.2044
     24 C          65.6156   91.8045   14.8364 C.ar    1  UNL1        0.0191
     25 C          66.5713   92.2937   15.8839 C.ar    1  UNL1        0.0016
     26 C          67.4936   93.4375   15.5823 C.ar    1  UNL1        0.0014
     27 C          67.4602   94.0922   14.2331 C.ar    1  UNL1        0.0199
     28 C          66.5046   93.6031   13.1856 C.ar    1  UNL1        0.1222
     29 C          65.5822   92.4592   13.4872 C.ar    1  UNL1        0.0214
     30 S          66.4712   94.2577   11.8364 S.O2    1  UNL1        0.0634
     31 O          66.8740   92.9618   11.1976 O.2     1  UNL1       -0.1528
     32 O          66.0683   95.5537   12.4753 O.2     1  UNL1       -0.1528
     33 N          66.4378   94.9124   10.4873 N.3     1  UNL1       -0.1504
     34 C          65.5647   96.1101   10.2562 C.3     1  UNL1        0.1279
     35 C          65.5313   96.7648    8.9070 C.3     1  UNL1        0.1613
     36 O          66.3709   96.2218    7.7889 O.3     1  UNL1       -0.3507
     37 C          67.2440   95.0242    8.0200 C.3     1  UNL1        0.1613
     38 C          67.2775   94.3695    9.3692 C.3     1  UNL1        0.1279
@<TRIPOS>BOND
     1     7     8    1
     2     8     9    1
     3     9    10    1
     4    10     1    1
     5     1     2   ar
     6     2     3   ar
     7     3    24    1
     8    24    25   ar
     9    25    26   ar
    10    26    27   ar
    11    27    28   ar
    12    28    30    1
    13    30    31    2
    14    30    32    2
    15    30    33    1
    16    33    34    1
    17    34    35    1
    18    35    36    1
    19    36    37    1
    20    37    38    1
    21    28    29   ar
    22     3     4   ar
    23     4     5   ar
    24     5     6   ar
    25    10    11    1
    26    11    12    1
    27    12    15    1
    28    15    16   ar
    29    16    17   ar
    30    17    18    1
    31    17    19   ar
    32    19    20    1
    33    19    21   ar
    34    21    22   ar
    35    22    23    1
    36    12     8    1
    37    22    15   ar
    38     6     1   ar
    39    29    24   ar
    40    38    33    1
    41     7    13    1
    42     7    14    1
@<TRIPOS>MOLECULE
*****
 38 42 0 0 0
SMALL
GASTEIGER

@<TRIPOS>ATOM
      1 C          63.5405   88.3575   14.4698 C.ar    1  UNL1        0.1350
      2 C          64.4627   89.4975   14.1538 C.ar    1  UNL1        0.0535
      3 C          64.6654   90.5973   15.1534 C.ar    1  UNL1        0.0859
      4 N          63.9460   90.5571   16.4691 N.ar    1  UNL1       -0.2239
      5 C          63.0238   89.4170   16.7850 C.ar    1  UNL1        0.2000
      6 N          62.8211   88.3173   15.7854 N.ar    1  UNL1       -0.2090
      7 N          63.3733   83.5826   12.2217 N.3     1  UNL1       -0.3205
      8 C          63.2608   85.0628   12.4369 C.3     1  UNL1        0.0766
      9 C          63.5991   85.7985   13.6996 C.3     1  UNL1        0.1079
     10 N          63.3377   87.2576   13.4701 N.pl3   1  UNL1       -0.2914
     11 C          62.8379   87.4238   12.0657 C.3     1  UNL1        0.0980
     12 C          62.7904   86.0674   11.4270 C.3     1  UNL1        0.0602
     13 H          63.7192   83.1406   13.0734 H       1  UNL1        0.1189
     14 H          64.0213   83.3986   11.4558 H       1  UNL1        0.1189
     15 C          62.3499   85.7680   10.0248 C.ar    1  UNL1        0.0103
     16 C          61.0521   86.3188    9.5126 C.ar    1  UNL1        0.0300
     17 C          60.6115   86.0194    8.1104 C.ar    1  UNL1        0.1672
     18 F          59.3137   86.5702    7.5982 F       1  UNL1       -0.2018
     19 C          61.4688   85.1693    7.2203 C.ar    1  UNL1        0.1696
     20 F          61.0282   84.8699    5.8181 F       1  UNL1       -0.2017
     21 C          62.7667   84.6184    7.7325 C.ar    1  UNL1        0.0612
     22 C          63.2071   84.9178    9.1346 C.ar    1  UNL1        0.1386
     23 F          64.5051   84.3670    9.6469 F       1  UNL1       -0.2044
     24 C          65.5877   91.7374   14.8375 C.ar    1  UNL1        0.0191
     25 C          66.5658   92.2185   15.8679 C.ar    1  UNL1        0.0016
     26 C          67.4880   93.3585   15.5520 C.ar    1  UNL1        0.0014
     27 C          67.4321   94.0175   14.2056 C.ar    1  UNL1        0.0199
     28 C          66.4539   93.5365   13.1752 C.ar    1  UNL1        0.1222
     29 C          65.5317   92.3964   13.4912 C.ar    1  UNL1        0.0214
     30 S          66.3979   94.1954   11.8289 S.O2    1  UNL1        0.0634
     31 O          66.1226   95.5152   12.4864 O.2     1  UNL1       -0.1528
     32 O          66.6732   92.8756   11.1715 O.2     1  UNL1       -0.1528
     33 N          66.3419   94.8544   10.4826 N.3     1  UNL1       -0.1504
     34 C          65.4741   96.0599   10.2731 C.3     1  UNL1        0.1279
     35 C          65.4181   96.7188    8.9268 C.3     1  UNL1        0.1613
     36 O          66.2299   96.1724    7.7900 O.3     1  UNL1       -0.3507
     37 C          67.0977   94.9670    7.9994 C.3     1  UNL1        0.1613
     38 C          67.1537   94.3080    9.3458 C.3     1  UNL1        0.1279
@<TRIPOS>BOND
     1     7     8    1
     2     8     9    1
     3     9    10    1
     4    10     1    1
     5     1     2   ar
     6     2     3   ar
     7     3    24    1
     8    24    25   ar
     9    25    26   ar
    10    26    27   ar
    11    27    28   ar
    12    28    30    1
    13    30    31    2
    14    30    32    2
    15    30    33    1
    16    33    34    1
    17    34    35    1
    18    35    36    1
    19    36    37    1
    20    37    38    1
    21    28    29   ar
    22     3     4   ar
    23     4     5   ar
    24     5     6   ar
    25    10    11    1
    26    11    12    1
    27    12    15    1
    28    15    16   ar
    29    16    17   ar
    30    17    18    1
    31    17    19   ar
    32    19    20    1
    33    19    21   ar
    34    21    22   ar
    35    22    23    1
    36    12     8    1
    37    22    15   ar
    38     6     1   ar
    39    29    24   ar
    40    38    33    1
    41     7    13    1
    42     7    14    1
@<TRIPOS>MOLECULE
*****
 38 42 0 0 0
SMALL
GASTEIGER

@<TRIPOS>ATOM
      1 C          63.5914   88.4808   14.4797 C.ar    1  UNL1        0.1350
      2 C          64.5059   89.6304   14.1763 C.ar    1  UNL1        0.0535
      3 C          64.7288   90.7022   15.2016 C.ar    1  UNL1        0.0859
      4 N          64.0371   90.6245   16.5304 N.ar    1  UNL1       -0.2239
      5 C          63.1227   89.4749   16.8338 C.ar    1  UNL1        0.2000
      6 N          62.8998   88.4030   15.8085 N.ar    1  UNL1       -0.2090
      7 N          63.4914   83.7885   12.0603 N.3     1  UNL1       -0.3205
      8 C          63.3226   85.2520   12.3423 C.3     1  UNL1        0.0766
      9 C          63.7181   85.9580   13.6053 C.3     1  UNL1        0.1079
     10 N          63.3685   87.4088   13.4543 N.pl3   1  UNL1       -0.2914
     11 C          62.7569   87.5996   12.0980 C.3     1  UNL1        0.0980
     12 C          62.7285   86.2666   11.4107 C.3     1  UNL1        0.0602
     13 H          63.9218   83.3344   12.8659 H       1  UNL1        0.1189
     14 H          64.0883   83.6665   11.2422 H       1  UNL1        0.1189
     15 C          62.1990   85.9958   10.0337 C.ar    1  UNL1        0.0103
     16 C          63.0468   85.2662    9.0342 C.ar    1  UNL1        0.0300
     17 C          62.5173   84.9953    7.6571 C.ar    1  UNL1        0.1672
     18 F          63.3651   84.2658    6.6577 F       1  UNL1       -0.2018
     19 C          61.1400   85.4541    7.2796 C.ar    1  UNL1        0.1696
     20 F          60.6105   85.1832    5.9026 F       1  UNL1       -0.2017
     21 C          60.2921   86.1836    8.2791 C.ar    1  UNL1        0.0612
     22 C          60.8217   86.4544    9.6561 C.ar    1  UNL1        0.1386
     23 F          59.9738   87.1841   10.6557 F       1  UNL1       -0.2044
     24 C          65.6433   91.8519   14.8983 C.ar    1  UNL1        0.0191
     25 C          66.5940   92.3506   15.9458 C.ar    1  UNL1        0.0016
     26 C          67.5085   93.5002   15.6425 C.ar    1  UNL1        0.0014
     27 C          67.4723   94.1512   14.2916 C.ar    1  UNL1        0.0199
     28 C          66.5216   93.6525   13.2440 C.ar    1  UNL1        0.1222
     29 C          65.6071   92.5028   13.5474 C.ar    1  UNL1        0.0214
     30 S          66.4854   94.3034   11.8931 S.O2    1  UNL1        0.0634
     31 O          66.8647   93.0000   11.2549 O.2     1  UNL1       -0.1528
     32 O          66.1061   95.6067   12.5313 O.2     1  UNL1       -0.1528
     33 N          66.4491   94.9543   10.5422 N.3     1  UNL1       -0.1504
     34 C          67.3423   94.4554    9.4451 C.3     1  UNL1        0.1279
     35 C          67.3060   95.1063    8.0942 C.3     1  UNL1        0.1613
     36 O          66.3767   96.2561    7.8403 O.3     1  UNL1       -0.3507
     37 C          65.4836   96.7549    8.9373 C.3     1  UNL1        0.1613
     38 C          65.5198   96.1040   10.2883 C.3     1  UNL1        0.1279
@<TRIPOS>BOND
     1     7     8    1
     2     8     9    1
     3     9    10    1
     4    10     1    1
     5     1     2   ar
     6     2     3   ar
     7     3    24    1
     8    24    25   ar
     9    25    26   ar
    10    26    27   ar
    11    27    28   ar
    12    28    30    1
    13    30    31    2
    14    30    32    2
    15    30    33    1
    16    33    34    1
    17    34    35    1
    18    35    36    1
    19    36    37    1
    20    37    38    1
    21    28    29   ar
    22     3     4   ar
    23     4     5   ar
    24     5     6   ar
    25    10    11    1
    26    11    12    1
    27    12    15    1
    28    15    16   ar
    29    16    17   ar
    30    17    18    1
    31    17    19   ar
    32    19    20    1
    33    19    21   ar
    34    21    22   ar
    35    22    23    1
    36    12     8    1
    37    22    15   ar
    38     6     1   ar
    39    29    24   ar
    40    38    33    1
    41     7    13    1
    42     7    14    1
@<TRIPOS>MOLECULE
*****
 38 42 0 0 0
SMALL
GASTEIGER

@<TRIPOS>ATOM
      1 C          62.0811   87.3386   11.8406 C.ar    1  UNL1        0.1350
      2 C          63.0503   88.4814   11.7727 C.ar    1  UNL1        0.0535
      3 C          62.5712   89.8491   11.3858 C.ar    1  UNL1        0.0859
      4 N          61.1229   90.0741   11.0668 N.ar    1  UNL1       -0.2239
      5 C          60.1537   88.9313   11.1347 C.ar    1  UNL1        0.2000
      6 N          60.6327   87.5636   11.5215 N.ar    1  UNL1       -0.2090
      7 N          64.4656   83.3960   14.4196 N.3     1  UNL1       -0.3205
      8 C          63.6562   84.1586   13.4130 C.3     1  UNL1        0.0766
      9 C          63.4223   85.6403   13.4096 C.3     1  UNL1        0.1079
     10 N          62.5601   85.9708   12.2275 N.pl3   1  UNL1       -0.2914
     11 C          62.2612   84.6934   11.5002 C.3     1  UNL1        0.0980
     12 C          62.9385   83.5734   12.2328 C.3     1  UNL1        0.0602
     13 H          64.8407   84.0421   15.1141 H       1  UNL1        0.1189
     14 H          65.2344   82.9202   13.9476 H       1  UNL1        0.1189
     15 C          62.9043   82.1229   11.8522 C.ar    1  UNL1        0.0103
     16 C          62.4719   81.0945   12.8548 C.ar    1  UNL1        0.0300
     17 C          62.4377   79.6439   12.4742 C.ar    1  UNL1        0.1672
     18 F          62.0053   78.6155   13.4768 F       1  UNL1       -0.2018
     19 C          62.8359   79.2220   11.0910 C.ar    1  UNL1        0.1696
     20 F          62.8017   77.7715   10.7104 F       1  UNL1       -0.2017
     21 C          63.2683   80.2505   10.0883 C.ar    1  UNL1        0.0612
     22 C          63.3025   81.7009   10.4690 C.ar    1  UNL1        0.1386
     23 F          63.7349   82.7295    9.4663 F       1  UNL1       -0.2044
     24 C          63.5404   90.9920   11.3179 C.ar    1  UNL1        0.0191
     25 C          63.5344   91.9111   10.1325 C.ar    1  UNL1        0.0016
     26 C          64.5035   93.0539   10.0646 C.ar    1  UNL1        0.0014
     27 C          65.4788   93.2777   11.1821 C.ar    1  UNL1        0.0199
     28 C          65.4848   92.3586   12.3676 C.ar    1  UNL1        0.1222
     29 C          64.5156   91.2157   12.4355 C.ar    1  UNL1        0.0214
     30 S          66.4600   92.5823   13.4851 S.O2    1  UNL1        0.0634
     31 O          65.3644   92.3616   14.4854 O.2     1  UNL1       -0.1528
     32 O          67.5557   92.8030   12.4848 O.2     1  UNL1       -0.1528
     33 N          67.4352   92.8060   14.6026 N.3     1  UNL1       -0.1504
     34 C          67.9112   94.1936   14.9162 C.3     1  UNL1        0.1279
     35 C          68.8864   94.4173   16.0337 C.3     1  UNL1        0.1613
     36 O          69.3857   93.2536   16.8377 O.3     1  UNL1       -0.3507
     37 C          68.9098   91.8661   16.5242 C.3     1  UNL1        0.1613
     38 C          67.9345   91.6423   15.4066 C.3     1  UNL1        0.1279
@<TRIPOS>BOND
     1     7     8    1
     2     8     9    1
     3     9    10    1
     4    10     1    1
     5     1     2   ar
     6     2     3   ar
     7     3    24    1
     8    24    25   ar
     9    25    26   ar
    10    26    27   ar
    11    27    28   ar
    12    28    30    1
    13    30    31    2
    14    30    32    2
    15    30    33    1
    16    33    34    1
    17    34    35    1
    18    35    36    1
    19    36    37    1
    20    37    38    1
    21    28    29   ar
    22     3     4   ar
    23     4     5   ar
    24     5     6   ar
    25    10    11    1
    26    11    12    1
    27    12    15    1
    28    15    16   ar
    29    16    17   ar
    30    17    18    1
    31    17    19   ar
    32    19    20    1
    33    19    21   ar
    34    21    22   ar
    35    22    23    1
    36    12     8    1
    37    22    15   ar
    38     6     1   ar
    39    29    24   ar
    40    38    33    1
    41     7    13    1
    42     7    14    1
