@<TRIPOS>MOLECULE
*****
 37 40 0 0 0
SMALL
GASTEIGER

@<TRIPOS>ATOM
      1 C          64.1570   89.3989   14.3150 C.ar    1  UNL1        0.1220
      2 C          64.9808   90.5500   14.8114 C.ar    1  UNL1        0.0212
      3 C          65.2482   91.7225   13.9150 C.ar    1  UNL1        0.0160
      4 C          64.6918   91.7440   12.5222 C.ar    1  UNL1        0.0506
      5 C          63.8680   90.5929   12.0257 C.ar    1  UNL1        0.0148
      6 C          63.3117   90.6144   10.6329 C.ar    1  UNL1        0.0013
      7 C          62.4879   89.4634   10.1365 C.ar    1  UNL1        0.0000
      8 C          62.2205   88.2908   11.0330 C.ar    1  UNL1        0.0000
      9 C          62.7769   88.2693   12.4258 C.ar    1  UNL1        0.0014
     10 C          63.6006   89.4204   12.9222 C.ar    1  UNL1        0.0198
     11 N          64.9593   92.9166   11.6258 N.am    1  UNL1       -0.2804
     12 C          66.3605   93.2189   11.1843 C.2     1  UNL1        0.2492
     13 O          67.4945   92.3487   11.6392 O.2     1  UNL1       -0.2698
     14 H          64.2150   93.4878   11.3272 H       1  UNL1        0.1552
     15 C          66.6279   94.3915   10.2878 C.ar    1  UNL1        0.0497
     16 C          65.8967   95.6832   10.5043 C.ar    1  UNL1        0.0042
     17 C          66.1641   96.8558    9.6079 C.ar    1  UNL1        0.0001
     18 C          67.1628   96.7366    8.4950 C.ar    1  UNL1       -0.0003
     19 C          67.8939   95.4449    8.2785 C.ar    1  UNL1       -0.0041
     20 C          67.6265   94.2724    9.1749 C.ar    1  UNL1       -0.0175
     21 C          68.3578   92.9807    8.9584 C.3     1  UNL1        0.0312
     22 S          63.8896   88.2263   15.2115 S.O2    1  UNL1        0.0602
     23 O          65.0448   87.4930   14.5968 O.2     1  UNL1       -0.1530
     24 O          62.7344   88.9597   15.8261 O.2     1  UNL1       -0.1530
     25 N          63.6222   87.0538   16.1079 N.3     1  UNL1       -0.1807
     26 H          64.4164   86.9822   16.7439 H       1  UNL1        0.1487
     27 C          62.7965   81.5997   13.7474 C.2     1  UNL1        0.4049
     28 O          61.7845   80.6686   14.3464 O.2     1  UNL1       -0.2262
     29 N          63.0029   82.9633   14.3375 N.am    1  UNL1       -0.2459
     30 C          64.0149   83.8944   13.7385 C.3     1  UNL1        0.0982
     31 C          64.2214   85.2579   14.3286 C.3     1  UNL1        0.0391
     32 C          63.4158   85.6902   15.5177 C.3     1  UNL1        0.0789
     33 C          62.4038   84.7591   16.1168 C.3     1  UNL1        0.0391
     34 C          62.1974   83.3956   15.5267 C.3     1  UNL1        0.0982
     35 O          63.6021   81.1674   12.5582 O.3     1  UNL1       -0.4345
     36 C          64.1454   82.5480   10.4254 C.3     1  UNL1        0.0513
     37 C          63.2250   81.6393   11.1852 C.3     1  UNL1        0.2102
@<TRIPOS>BOND
     1    36    37    1
     2    37    35    1
     3    35    27    1
     4    27    28    2
     5    27    29   am
     6    29    30    1
     7    30    31    1
     8    31    32    1
     9    32    25    1
    10    25    22    1
    11    22    23    2
    12    22    24    2
    13    22     1    1
    14     1     2   ar
    15     2     3   ar
    16     3     4   ar
    17     4    11    1
    18    11    12   am
    19    12    13    2
    20    12    15    1
    21    15    16   ar
    22    16    17   ar
    23    17    18   ar
    24    18    19   ar
    25    19    20   ar
    26    20    21    1
    27     4     5   ar
    28     5     6   ar
    29     6     7   ar
    30     7     8   ar
    31     8     9   ar
    32     9    10   ar
    33    32    33    1
    34    33    34    1
    35    34    29    1
    36    10     1   ar
    37    20    15   ar
    38    10     5   ar
    39    25    26    1
    40    11    14    1
@<TRIPOS>MOLECULE
*****
 37 40 0 0 0
SMALL
GASTEIGER

@<TRIPOS>ATOM
      1 C          64.1180   89.6845   14.3849 C.ar    1  UNL1        0.1220
      2 C          64.9063   90.8618   14.8776 C.ar    1  UNL1        0.0212
      3 C          65.1871   92.0138   13.9589 C.ar    1  UNL1        0.0160
      4 C          64.6796   91.9886   12.5476 C.ar    1  UNL1        0.0506
      5 C          63.8913   90.8114   12.0549 C.ar    1  UNL1        0.0148
      6 C          63.3838   90.7862   10.6436 C.ar    1  UNL1        0.0013
      7 C          62.5956   89.6090   10.1510 C.ar    1  UNL1        0.0000
      8 C          62.3147   88.4570   11.0697 C.ar    1  UNL1        0.0000
      9 C          62.8222   88.4821   12.4809 C.ar    1  UNL1        0.0014
     10 C          63.6105   89.6593   12.9736 C.ar    1  UNL1        0.0198
     11 N          64.9605   93.1407   11.6290 N.am    1  UNL1       -0.2804
     12 C          66.3207   93.2971   11.0163 C.2     1  UNL1        0.2492
     13 O          67.4001   92.3015   11.3223 O.2     1  UNL1       -0.2698
     14 H          64.2520   93.7941   11.4281 H       1  UNL1        0.1552
     15 C          66.6015   94.4491   10.0977 C.ar    1  UNL1        0.0497
     16 C          65.7854   95.7038   10.1970 C.ar    1  UNL1        0.0042
     17 C          66.0662   96.8559    9.2784 C.ar    1  UNL1        0.0001
     18 C          67.1631   96.7532    8.2603 C.ar    1  UNL1       -0.0003
     19 C          67.9792   95.4986    8.1610 C.ar    1  UNL1       -0.0041
     20 C          67.6983   94.3465    9.0797 C.ar    1  UNL1       -0.0175
     21 C          68.5144   93.0918    8.9803 C.3     1  UNL1        0.0312
     22 S          63.8372   88.5325   15.3036 S.O2    1  UNL1        0.0602
     23 O          65.0621   87.8302   14.7973 O.2     1  UNL1       -0.1530
     24 O          62.6122   89.2348   15.8099 O.2     1  UNL1       -0.1530
     25 N          63.5563   87.3805   16.2223 N.3     1  UNL1       -0.1807
     26 H          64.2954   87.3775   16.9253 H       1  UNL1        0.1487
     27 C          63.2299   81.8052   14.0290 C.2     1  UNL1        0.4049
     28 O          64.2236   81.3427   13.0050 O.2     1  UNL1       -0.2262
     29 N          63.3115   83.1991   14.5774 N.am    1  UNL1       -0.2459
     30 C          62.3178   83.6615   15.6014 C.3     1  UNL1        0.0982
     31 C          62.3994   85.0553   16.1497 C.3     1  UNL1        0.0391
     32 C          63.4747   85.9866   15.6740 C.3     1  UNL1        0.0789
     33 C          64.4684   85.5241   14.6499 C.3     1  UNL1        0.0391
     34 C          64.3868   84.1303   14.1016 C.3     1  UNL1        0.0982
     35 O          62.1546   80.8739   14.5048 O.3     1  UNL1       -0.4345
     36 C          59.7098   80.0055   14.3676 C.3     1  UNL1        0.0513
     37 C          60.8066   80.8862   13.8468 C.3     1  UNL1        0.2102
@<TRIPOS>BOND
     1    36    37    1
     2    37    35    1
     3    35    27    1
     4    27    28    2
     5    27    29   am
     6    29    30    1
     7    30    31    1
     8    31    32    1
     9    32    25    1
    10    25    22    1
    11    22    23    2
    12    22    24    2
    13    22     1    1
    14     1     2   ar
    15     2     3   ar
    16     3     4   ar
    17     4    11    1
    18    11    12   am
    19    12    13    2
    20    12    15    1
    21    15    16   ar
    22    16    17   ar
    23    17    18   ar
    24    18    19   ar
    25    19    20   ar
    26    20    21    1
    27     4     5   ar
    28     5     6   ar
    29     6     7   ar
    30     7     8   ar
    31     8     9   ar
    32     9    10   ar
    33    32    33    1
    34    33    34    1
    35    34    29    1
    36    10     1   ar
    37    20    15   ar
    38    10     5   ar
    39    25    26    1
    40    11    14    1
@<TRIPOS>MOLECULE
*****
 37 40 0 0 0
SMALL
GASTEIGER

@<TRIPOS>ATOM
      1 C          64.2003   89.5027   13.5967 C.ar    1  UNL1        0.1220
      2 C          64.4372   88.5706   14.7478 C.ar    1  UNL1        0.0212
      3 C          63.9094   87.1674   14.6975 C.ar    1  UNL1        0.0160
      4 C          63.1446   86.6964   13.4962 C.ar    1  UNL1        0.0506
      5 C          62.9077   87.6285   12.3450 C.ar    1  UNL1        0.0148
      6 C          62.1430   87.1574   11.1437 C.ar    1  UNL1        0.0013
      7 C          61.9061   88.0895    9.9926 C.ar    1  UNL1        0.0000
      8 C          62.4339   89.4926   10.0429 C.ar    1  UNL1        0.0000
      9 C          63.1986   89.9637   11.2442 C.ar    1  UNL1        0.0014
     10 C          63.4355   89.0316   12.3953 C.ar    1  UNL1        0.0198
     11 N          62.6168   85.2932   13.4460 N.am    1  UNL1       -0.2804
     12 C          63.5687   84.1353   13.3912 C.2     1  UNL1        0.2492
     13 O          65.0486   84.3805   13.3866 O.2     1  UNL1       -0.2698
     14 H          61.6456   85.1322   13.4490 H       1  UNL1        0.1552
     15 C          63.0409   82.7321   13.3409 C.ar    1  UNL1        0.0497
     16 C          62.1634   82.2210   14.4450 C.ar    1  UNL1        0.0042
     17 C          61.6356   80.8178   14.3947 C.ar    1  UNL1        0.0001
     18 C          61.9852   79.9258   13.2405 C.ar    1  UNL1       -0.0003
     19 C          62.8627   80.4370   12.1365 C.ar    1  UNL1       -0.0041
     20 C          63.3905   81.8402   12.1868 C.ar    1  UNL1       -0.0175
     21 C          64.2680   82.3514   11.0827 C.3     1  UNL1        0.0312
     22 S          64.7282   90.9058   13.6469 S.O2    1  UNL1        0.0602
     23 O          65.9955   90.4066   14.2752 O.2     1  UNL1       -0.1530
     24 O          63.4608   91.4051   13.0186 O.2     1  UNL1       -0.1530
     25 N          65.2560   92.3090   13.6971 N.3     1  UNL1       -0.1807
     26 H          64.4775   92.9067   13.9748 H       1  UNL1        0.1487
     27 C          67.6749   94.7815    8.7944 C.2     1  UNL1        0.4049
     28 O          68.3392   93.9139    7.7668 O.2     1  UNL1       -0.2262
     29 N          67.0701   94.1633   10.0201 N.am    1  UNL1       -0.2459
     30 C          66.4058   95.0309   11.0477 C.3     1  UNL1        0.0982
     31 C          65.8011   94.4128   12.2734 C.3     1  UNL1        0.0391
     32 C          65.8607   92.9272   12.4714 C.3     1  UNL1        0.0789
     33 C          66.5251   92.0596   11.4438 C.3     1  UNL1        0.0391
     34 C          67.1298   92.6777   10.2182 C.3     1  UNL1        0.0982
     35 O          67.6152   96.2671    8.5964 O.3     1  UNL1       -0.4345
     36 C          65.3508   96.8553    7.4664 C.3     1  UNL1        0.0513
     37 C          66.8505   96.8395    7.4397 C.3     1  UNL1        0.2102
@<TRIPOS>BOND
     1    36    37    1
     2    37    35    1
     3    35    27    1
     4    27    28    2
     5    27    29   am
     6    29    30    1
     7    30    31    1
     8    31    32    1
     9    32    25    1
    10    25    22    1
    11    22    23    2
    12    22    24    2
    13    22     1    1
    14     1     2   ar
    15     2     3   ar
    16     3     4   ar
    17     4    11    1
    18    11    12   am
    19    12    13    2
    20    12    15    1
    21    15    16   ar
    22    16    17   ar
    23    17    18   ar
    24    18    19   ar
    25    19    20   ar
    26    20    21    1
    27     4     5   ar
    28     5     6   ar
    29     6     7   ar
    30     7     8   ar
    31     8     9   ar
    32     9    10   ar
    33    32    33    1
    34    33    34    1
    35    34    29    1
    36    10     1   ar
    37    20    15   ar
    38    10     5   ar
    39    25    26    1
    40    11    14    1
@<TRIPOS>MOLECULE
*****
 37 40 0 0 0
SMALL
GASTEIGER

@<TRIPOS>ATOM
      1 C          64.1773   89.1792   13.9541 C.ar    1  UNL1        0.1220
      2 C          64.4343   88.0884   14.9511 C.ar    1  UNL1        0.0212
      3 C          63.9840   86.6871   14.6624 C.ar    1  UNL1        0.0160
      4 C          63.2767   86.3765   13.3766 C.ar    1  UNL1        0.0506
      5 C          63.0197   87.4673   12.3795 C.ar    1  UNL1        0.0148
      6 C          62.3125   87.1567   11.0937 C.ar    1  UNL1        0.0013
      7 C          62.0555   88.2475   10.0967 C.ar    1  UNL1        0.0000
      8 C          62.5058   89.6488   10.3854 C.ar    1  UNL1        0.0000
      9 C          63.2131   89.9594   11.6712 C.ar    1  UNL1        0.0014
     10 C          63.4700   88.8687   12.6682 C.ar    1  UNL1        0.0198
     11 N          62.8264   84.9751   13.0879 N.am    1  UNL1       -0.2804
     12 C          63.7853   83.8322   13.2431 C.2     1  UNL1        0.2492
     13 O          65.1947   84.0906   13.6870 O.2     1  UNL1       -0.2698
     14 H          61.9014   84.8055   12.7965 H       1  UNL1        0.1552
     15 C          63.3350   82.4308   12.9543 C.ar    1  UNL1        0.0497
     16 C          62.7641   81.5850   14.0538 C.ar    1  UNL1        0.0042
     17 C          62.3138   80.1836   13.7650 C.ar    1  UNL1        0.0001
     18 C          62.4344   79.6281   12.3769 C.ar    1  UNL1       -0.0003
     19 C          63.0052   80.4739   11.2775 C.ar    1  UNL1       -0.0041
     20 C          63.4556   81.8753   11.5662 C.ar    1  UNL1       -0.0175
     21 C          64.0264   82.7212   10.4668 C.3     1  UNL1        0.0312
     22 S          64.6276   90.5806   14.2428 S.O2    1  UNL1        0.0602
     23 O          63.1975   91.0306   14.2890 O.2     1  UNL1       -0.1530
     24 O          66.0578   90.1305   14.1966 O.2     1  UNL1       -0.1530
     25 N          65.0779   91.9820   14.5315 N.3     1  UNL1       -0.1807
     26 H          64.2945   92.4564   14.9806 H       1  UNL1        0.1487
     27 C          66.9119   95.5268   10.0515 C.2     1  UNL1        0.4049
     28 O          67.5438   96.8530   10.3550 O.2     1  UNL1       -0.2262
     29 N          66.4534   94.6406   11.1715 N.am    1  UNL1       -0.2459
     30 C          65.8215   93.3145   10.8680 C.3     1  UNL1        0.0982
     31 C          65.3630   92.4283   11.9880 C.3     1  UNL1        0.0391
     32 C          65.5364   92.8682   13.4115 C.3     1  UNL1        0.0789
     33 C          66.1683   94.1943   13.7150 C.3     1  UNL1        0.0391
     34 C          66.6268   95.0805   12.5950 C.3     1  UNL1        0.0982
     35 O          66.7385   95.0869    8.6280 O.3     1  UNL1       -0.4345
     36 C          68.3663   93.0620    8.6457 C.3     1  UNL1        0.0513
     37 C          67.8060   94.2724    7.9593 C.3     1  UNL1        0.2102
@<TRIPOS>BOND
     1    36    37    1
     2    37    35    1
     3    35    27    1
     4    27    28    2
     5    27    29   am
     6    29    30    1
     7    30    31    1
     8    31    32    1
     9    32    25    1
    10    25    22    1
    11    22    23    2
    12    22    24    2
    13    22     1    1
    14     1     2   ar
    15     2     3   ar
    16     3     4   ar
    17     4    11    1
    18    11    12   am
    19    12    13    2
    20    12    15    1
    21    15    16   ar
    22    16    17   ar
    23    17    18   ar
    24    18    19   ar
    25    19    20   ar
    26    20    21    1
    27     4     5   ar
    28     5     6   ar
    29     6     7   ar
    30     7     8   ar
    31     8     9   ar
    32     9    10   ar
    33    32    33    1
    34    33    34    1
    35    34    29    1
    36    10     1   ar
    37    20    15   ar
    38    10     5   ar
    39    25    26    1
    40    11    14    1
@<TRIPOS>MOLECULE
*****
 37 40 0 0 0
SMALL
GASTEIGER

@<TRIPOS>ATOM
      1 C          64.1020   89.7746   14.1663 C.ar    1  UNL1        0.1220
      2 C          63.5048   89.7418   12.7907 C.ar    1  UNL1        0.0212
      3 C          63.7673   90.8653   11.8321 C.ar    1  UNL1        0.0160
      4 C          64.6270   92.0215   12.2490 C.ar    1  UNL1        0.0506
      5 C          65.2243   92.0544   13.6246 C.ar    1  UNL1        0.0148
      6 C          66.0841   93.2106   14.0415 C.ar    1  UNL1        0.0013
      7 C          66.6813   93.2434   15.4171 C.ar    1  UNL1        0.0000
      8 C          66.4188   92.1200   16.3757 C.ar    1  UNL1        0.0000
      9 C          65.5590   90.9637   15.9588 C.ar    1  UNL1        0.0014
     10 C          64.9618   90.9309   14.5832 C.ar    1  UNL1        0.0198
     11 N          64.8896   93.1449   11.2904 N.am    1  UNL1       -0.2804
     12 C          66.2665   93.3470   10.7307 C.2     1  UNL1        0.2492
     13 O          67.3809   92.4256   11.1296 O.2     1  UNL1       -0.2698
     14 H          64.1581   93.7497   11.0285 H       1  UNL1        0.1552
     15 C          66.5290   94.4704    9.7721 C.ar    1  UNL1        0.0497
     16 C          65.7203   95.7311    9.8545 C.ar    1  UNL1        0.0042
     17 C          65.9828   96.8546    8.8959 C.ar    1  UNL1        0.0001
     18 C          67.0540   96.7173    7.8548 C.ar    1  UNL1       -0.0003
     19 C          67.8627   95.4567    7.7724 C.ar    1  UNL1       -0.0041
     20 C          67.6001   94.3332    8.7310 C.ar    1  UNL1       -0.0175
     21 C          68.4088   93.0725    8.6486 C.3     1  UNL1        0.0312
     22 S          63.8395   88.6512   15.1249 S.O2    1  UNL1        0.0602
     23 O          62.6461   89.3862   15.6595 O.2     1  UNL1       -0.1530
     24 O          65.0328   87.9162   14.5903 O.2     1  UNL1       -0.1530
     25 N          63.5769   87.5278   16.0835 N.3     1  UNL1       -0.1807
     26 H          64.3507   87.5209   16.7481 H       1  UNL1        0.1487
     27 C          62.9974   81.9156   14.0420 C.2     1  UNL1        0.4049
     28 O          62.0937   80.9497   14.7494 O.2     1  UNL1       -0.2262
     29 N          63.1422   83.3187   14.5524 N.am    1  UNL1       -0.2459
     30 C          64.0459   84.2845   13.8449 C.3     1  UNL1        0.0982
     31 C          64.1908   85.6875   14.3553 C.3     1  UNL1        0.0391
     32 C          63.4321   86.1247   15.5731 C.3     1  UNL1        0.0789
     33 C          62.5284   85.1588   16.2805 C.3     1  UNL1        0.0391
     34 C          62.3835   83.7558   15.7702 C.3     1  UNL1        0.0982
     35 O          63.7561   81.4784   12.8242 O.3     1  UNL1       -0.4345
     36 C          63.9642   82.4368   10.4183 C.3     1  UNL1        0.0513
     37 C          63.1750   81.6993   11.4590 C.3     1  UNL1        0.2102
@<TRIPOS>BOND
     1    36    37    1
     2    37    35    1
     3    35    27    1
     4    27    28    2
     5    27    29   am
     6    29    30    1
     7    30    31    1
     8    31    32    1
     9    32    25    1
    10    25    22    1
    11    22    23    2
    12    22    24    2
    13    22     1    1
    14     1     2   ar
    15     2     3   ar
    16     3     4   ar
    17     4    11    1
    18    11    12   am
    19    12    13    2
    20    12    15    1
    21    15    16   ar
    22    16    17   ar
    23    17    18   ar
    24    18    19   ar
    25    19    20   ar
    26    20    21    1
    27     4     5   ar
    28     5     6   ar
    29     6     7   ar
    30     7     8   ar
    31     8     9   ar
    32     9    10   ar
    33    32    33    1
    34    33    34    1
    35    34    29    1
    36    10     1   ar
    37    20    15   ar
    38    10     5   ar
    39    25    26    1
    40    11    14    1
