@<TRIPOS>MOLECULE
*****
 20 22 0 0 0
SMALL
GASTEIGER

@<TRIPOS>ATOM
      1 C          65.0918   91.5399   13.6303 C.2     1  UNL1        0.1197
      2 C          64.9667   90.3103   14.4802 C.2     1  UNL1        0.0209
      3 C          64.1386   89.1525   14.0070 C.2     1  UNL1        0.0512
      4 C          63.4357   89.2244   12.6839 C.2     1  UNL1        0.2322
      5 N          62.5563   88.2482   11.9602 N.2     1  UNL1       -0.0308
      6 C          62.1380   88.8745   10.6630 C.2     1  UNL1        0.3752
      7 N          62.7587   90.2378   10.5850 N.2     1  UNL1       -0.0347
      8 C          63.5607   90.4540   11.8340 C.2     1  UNL1        0.2192
      9 C          64.3888   91.6118   12.3072 C.3     1  UNL1        0.1252
     10 C          61.2540   88.2475    9.6258 C.ar    1  UNL1        0.0884
     11 C          61.3082   86.7672    9.3898 C.ar    1  UNL1        0.0077
     12 C          60.4243   86.1402    8.3528 C.ar    1  UNL1        0.0003
     13 C          59.4862   86.9935    7.5517 C.ar    1  UNL1        0.0000
     14 C          59.4320   88.4739    7.7877 C.ar    1  UNL1        0.0003
     15 C          60.3159   89.1009    8.8248 C.ar    1  UNL1        0.0077
     16 O          65.4086   92.4930   15.4988 O.2     1  UNL1       -0.1424
     17 S          65.9198   92.6977   14.1035 S.O2    1  UNL1        0.1074
     18 O          66.4310   92.9023   12.7083 O.2     1  UNL1       -0.1424
     19 O          66.7479   93.8554   14.5768 O.3     1  UNL1       -0.2500
     20 H          66.5842   94.6239   14.0079 H       1  UNL1        0.2449
@<TRIPOS>BOND
     1    16    17    2
     2    17    18    2
     3    17    19    1
     4    17     1    1
     5     1     2    2
     6     2     3    1
     7     3     4    2
     8     4     5    1
     9     5     6    2
    10     6    10    1
    11    10    11   ar
    12    11    12   ar
    13    12    13   ar
    14    13    14   ar
    15    14    15   ar
    16     6     7    1
    17     7     8    2
    18     8     9    1
    19     9     1    1
    20     8     4    1
    21    15    10   ar
    22    19    20    1
@<TRIPOS>MOLECULE
*****
 20 22 0 0 0
SMALL
GASTEIGER

@<TRIPOS>ATOM
      1 C          64.2672   90.0451   13.9911 C.2     1  UNL1        0.1197
      2 C          63.5569   90.2254   12.6823 C.2     1  UNL1        0.0209
      3 C          63.0098   89.0328   11.9554 C.2     1  UNL1        0.0512
      4 C          63.1730   87.6599   12.5372 C.2     1  UNL1        0.2322
      5 N          62.7428   86.3070   12.0531 N.2     1  UNL1       -0.0308
      6 C          63.1872   85.2905   13.0627 C.2     1  UNL1        0.3752
      7 N          63.8921   86.0152   14.1707 N.2     1  UNL1       -0.0347
      8 C          63.8834   87.4797   13.8459 C.2     1  UNL1        0.2192
      9 C          64.4304   88.6723   14.5729 C.3     1  UNL1        0.1252
     10 C          62.9656   83.8093   12.9789 C.ar    1  UNL1        0.0884
     11 C          62.4987   83.0513   14.1861 C.ar    1  UNL1        0.0077
     12 C          62.2771   81.5702   14.1024 C.ar    1  UNL1        0.0003
     13 C          62.5224   80.8470   12.8114 C.ar    1  UNL1        0.0000
     14 C          62.9893   81.6049   11.6041 C.ar    1  UNL1        0.0003
     15 C          63.2109   83.0861   11.6879 C.ar    1  UNL1        0.0077
     16 O          66.0561   91.1796   13.8787 O.2     1  UNL1       -0.1424
     17 S          64.8143   91.2377   14.7180 S.O2    1  UNL1        0.1074
     18 O          63.5724   91.2958   15.5573 O.2     1  UNL1       -0.1424
     19 O          65.3613   92.4303   15.4449 O.3     1  UNL1       -0.2500
     20 H          65.3025   92.2809   16.4015 H       1  UNL1        0.2449
@<TRIPOS>BOND
     1    16    17    2
     2    17    18    2
     3    17    19    1
     4    17     1    1
     5     1     2    2
     6     2     3    1
     7     3     4    2
     8     4     5    1
     9     5     6    2
    10     6    10    1
    11    10    11   ar
    12    11    12   ar
    13    12    13   ar
    14    13    14   ar
    15    14    15   ar
    16     6     7    1
    17     7     8    2
    18     8     9    1
    19     9     1    1
    20     8     4    1
    21    15    10   ar
    22    19    20    1
@<TRIPOS>MOLECULE
*****
 20 22 0 0 0
SMALL
GASTEIGER

@<TRIPOS>ATOM
      1 C          65.6438   92.4115   13.7968 C.2     1  UNL1        0.1197
      2 C          65.8338   93.1876   12.5273 C.2     1  UNL1        0.0209
      3 C          65.1328   92.7571   11.2730 C.2     1  UNL1        0.0512
      4 C          64.2417   91.5506   11.2881 C.2     1  UNL1        0.2322
      5 N          63.4263   90.8916   10.2155 N.2     1  UNL1       -0.0308
      6 C          62.7322   89.7082   10.8220 C.2     1  UNL1        0.3752
      7 N          63.1187   89.6358   12.2695 N.2     1  UNL1       -0.0347
      8 C          64.0517   90.7746   12.5576 C.2     1  UNL1        0.2192
      9 C          64.7527   91.2050   13.8119 C.3     1  UNL1        0.1252
     10 C          61.8129   88.7631   10.1065 C.ar    1  UNL1        0.0884
     11 C          61.9926   87.2818   10.2599 C.ar    1  UNL1        0.0077
     12 C          61.0735   86.3367    9.5445 C.ar    1  UNL1        0.0003
     13 C          59.9746   86.8729    8.6756 C.ar    1  UNL1        0.0000
     14 C          59.7949   88.3541    8.5222 C.ar    1  UNL1        0.0003
     15 C          60.7141   89.2992    9.2376 C.ar    1  UNL1        0.0077
     16 O          65.1558   92.4176   15.8612 O.2     1  UNL1       -0.1424
     17 S          66.3448   92.8420   15.0511 S.O2    1  UNL1        0.1074
     18 O          67.5337   93.2663   14.2410 O.2     1  UNL1       -0.1424
     19 O          67.0458   93.2724   16.3054 O.3     1  UNL1       -0.2500
     20 H          67.3777   94.1772   16.1960 H       1  UNL1        0.2449
@<TRIPOS>BOND
     1    16    17    2
     2    17    18    2
     3    17    19    1
     4    17     1    1
     5     1     2    2
     6     2     3    1
     7     3     4    2
     8     4     5    1
     9     5     6    2
    10     6    10    1
    11    10    11   ar
    12    11    12   ar
    13    12    13   ar
    14    13    14   ar
    15    14    15   ar
    16     6     7    1
    17     7     8    2
    18     8     9    1
    19     9     1    1
    20     8     4    1
    21    15    10   ar
    22    19    20    1
@<TRIPOS>MOLECULE
*****
 20 22 0 0 0
SMALL
GASTEIGER

@<TRIPOS>ATOM
      1 C          60.5916   88.0120    9.3288 C.2     1  UNL1        0.1197
      2 C          60.9805   86.8560   10.2019 C.2     1  UNL1        0.0209
      3 C          61.9542   87.0585   11.3248 C.2     1  UNL1        0.0512
      4 C          62.5389   88.4170   11.5746 C.2     1  UNL1        0.2322
      5 N          63.5148   88.9170   12.5982 N.2     1  UNL1       -0.0308
      6 C          63.7290   90.3820   12.3576 C.2     1  UNL1        0.3752
      7 N          62.8855   90.7875   11.1854 N.2     1  UNL1       -0.0347
      8 C          62.1500   89.5730   10.7015 C.2     1  UNL1        0.2192
      9 C          61.1763   89.3705    9.5786 C.3     1  UNL1        0.1252
     10 C          64.6288   91.2833   13.1502 C.ar    1  UNL1        0.0884
     11 C          65.3264   92.4276   12.4764 C.ar    1  UNL1        0.0077
     12 C          66.2262   93.3289   13.2689 C.ar    1  UNL1        0.0003
     13 C          66.4283   93.0859   14.7352 C.ar    1  UNL1        0.0000
     14 C          65.7306   91.9416   15.4090 C.ar    1  UNL1        0.0003
     15 C          64.8309   91.0404   14.6165 C.ar    1  UNL1        0.0077
     16 O          59.6110   86.3343    8.4779 O.2     1  UNL1       -0.1424
     17 S          59.6179   87.8094    8.2058 S.O2    1  UNL1        0.1074
     18 O          59.6249   89.2845    7.9338 O.2     1  UNL1       -0.1424
     19 O          58.6443   87.6069    7.0829 O.3     1  UNL1       -0.2500
     20 H          58.9761   88.0460    6.2841 H       1  UNL1        0.2449
@<TRIPOS>BOND
     1    16    17    2
     2    17    18    2
     3    17    19    1
     4    17     1    1
     5     1     2    2
     6     2     3    1
     7     3     4    2
     8     4     5    1
     9     5     6    2
    10     6    10    1
    11    10    11   ar
    12    11    12   ar
    13    12    13   ar
    14    13    14   ar
    15    14    15   ar
    16     6     7    1
    17     7     8    2
    18     8     9    1
    19     9     1    1
    20     8     4    1
    21    15    10   ar
    22    19    20    1
@<TRIPOS>MOLECULE
*****
 20 22 0 0 0
SMALL
GASTEIGER

@<TRIPOS>ATOM
      1 C          63.2303   89.5215   12.0188 C.2     1  UNL1        0.1197
      2 C          62.4543   89.3056   10.7535 C.2     1  UNL1        0.0209
      3 C          62.0098   87.9245   10.3727 C.2     1  UNL1        0.0512
      4 C          62.3413   86.7594   11.2572 C.2     1  UNL1        0.2322
      5 N          62.0394   85.2945   11.1428 N.2     1  UNL1       -0.0308
      6 C          62.6289   84.6051   12.3374 C.2     1  UNL1        0.3752
      7 N          63.2951   85.6438   13.1902 N.2     1  UNL1       -0.0347
      8 C          63.1173   86.9752   12.5225 C.2     1  UNL1        0.2192
      9 C          63.5618   88.3563   12.9034 C.3     1  UNL1        0.1252
     10 C          62.5637   83.1349   12.6282 C.ar    1  UNL1        0.0884
     11 C          62.9304   82.1430   11.5645 C.ar    1  UNL1        0.0077
     12 C          62.8651   80.6729   11.8552 C.ar    1  UNL1        0.0003
     13 C          62.4332   80.1948   13.2097 C.ar    1  UNL1        0.0000
     14 C          62.0665   81.1867   14.2735 C.ar    1  UNL1        0.0003
     15 C          62.1317   82.6568   13.9827 C.ar    1  UNL1        0.0077
     16 O          63.5037   90.5579   13.8495 O.2     1  UNL1       -0.1424
     17 S          63.6748   90.9026   12.3997 S.O2    1  UNL1        0.1074
     18 O          63.8459   91.2473   10.9499 O.2     1  UNL1       -0.1424
     19 O          64.1193   92.2837   12.7805 O.3     1  UNL1       -0.2500
     20 H          63.6092   92.9377   12.2776 H       1  UNL1        0.2449
@<TRIPOS>BOND
     1    16    17    2
     2    17    18    2
     3    17    19    1
     4    17     1    1
     5     1     2    2
     6     2     3    1
     7     3     4    2
     8     4     5    1
     9     5     6    2
    10     6    10    1
    11    10    11   ar
    12    11    12   ar
    13    12    13   ar
    14    13    14   ar
    15    14    15   ar
    16     6     7    1
    17     7     8    2
    18     8     9    1
    19     9     1    1
    20     8     4    1
    21    15    10   ar
    22    19    20    1
@<TRIPOS>MOLECULE
*****
 20 22 0 0 0
SMALL
GASTEIGER

@<TRIPOS>ATOM
      1 C          60.5658   87.4795    8.7753 C.2     1  UNL1        0.1197
      2 C          59.8605   88.7909    8.5942 C.2     1  UNL1        0.0209
      3 C          60.2449   89.9717    9.4356 C.2     1  UNL1        0.0512
      4 C          61.3345   89.8411   10.4581 C.2     1  UNL1        0.2322
      5 N          61.9259   90.8230   11.4256 N.2     1  UNL1       -0.0308
      6 C          62.9968   90.1185   12.2047 C.2     1  UNL1        0.3752
      7 N          63.0672   88.7012   11.7187 N.2     1  UNL1       -0.0347
      8 C          62.0398   88.5298   10.6392 C.2     1  UNL1        0.2192
      9 C          61.6554   87.3490    9.7978 C.3     1  UNL1        0.1252
     10 C          63.8478   90.7249   13.2809 C.ar    1  UNL1        0.0884
     11 C          63.5205   90.4786   14.7239 C.ar    1  UNL1        0.0077
     12 C          64.3714   91.0849   15.8001 C.ar    1  UNL1        0.0003
     13 C          65.5497   91.9376   15.4332 C.ar    1  UNL1        0.0000
     14 C          65.8771   92.1838   13.9903 C.ar    1  UNL1        0.0003
     15 C          65.0261   91.5775   12.9141 C.ar    1  UNL1        0.0077
     16 O          58.7661   86.7933    7.8863 O.2     1  UNL1       -0.1424
     17 S          60.1814   86.2987    7.9339 S.O2    1  UNL1        0.1074
     18 O          61.5968   85.8041    7.9815 O.2     1  UNL1       -0.1424
     19 O          59.7971   85.1179    7.0925 O.3     1  UNL1       -0.2500
     20 H          60.1111   84.3035    7.5156 H       1  UNL1        0.2449
@<TRIPOS>BOND
     1    16    17    2
     2    17    18    2
     3    17    19    1
     4    17     1    1
     5     1     2    2
     6     2     3    1
     7     3     4    2
     8     4     5    1
     9     5     6    2
    10     6    10    1
    11    10    11   ar
    12    11    12   ar
    13    12    13   ar
    14    13    14   ar
    15    14    15   ar
    16     6     7    1
    17     7     8    2
    18     8     9    1
    19     9     1    1
    20     8     4    1
    21    15    10   ar
    22    19    20    1
@<TRIPOS>MOLECULE
*****
 20 22 0 0 0
SMALL
GASTEIGER

@<TRIPOS>ATOM
      1 C          63.0341   82.4813   13.3972 C.2     1  UNL1        0.1197
      2 C          63.6843   82.8259   14.7042 C.2     1  UNL1        0.0209
      3 C          64.0147   84.2536   15.0243 C.2     1  UNL1        0.0512
      4 C          63.6948   85.3368   14.0372 C.2     1  UNL1        0.2322
      5 N          63.9014   86.8220   14.0748 N.2     1  UNL1       -0.0308
      6 C          63.3789   87.3954   12.7910 C.2     1  UNL1        0.3752
      7 N          62.8493   86.2646   11.9599 N.2     1  UNL1       -0.0347
      8 C          63.0446   84.9923   12.7302 C.2     1  UNL1        0.2192
      9 C          62.7142   83.5645   12.4101 C.3     1  UNL1        0.1252
     10 C          63.3849   88.8452   12.4059 C.ar    1  UNL1        0.0884
     11 C          62.7406   89.2834   11.1241 C.ar    1  UNL1        0.0077
     12 C          62.7466   90.7330   10.7390 C.ar    1  UNL1        0.0003
     13 C          63.3970   91.7445   11.6356 C.ar    1  UNL1        0.0000
     14 C          64.0413   91.3063   12.9173 C.ar    1  UNL1        0.0003
     15 C          64.0353   89.8566   13.3025 C.ar    1  UNL1        0.0077
     16 O          62.6116   80.7465   14.5425 O.2     1  UNL1       -0.1424
     17 S          62.7038   81.0536   13.0772 S.O2    1  UNL1        0.1074
     18 O          62.7960   81.3607   11.6118 O.2     1  UNL1       -0.1424
     19 O          62.3735   79.6258   12.7572 O.3     1  UNL1       -0.2500
     20 H          63.0276   79.2747   12.1329 H       1  UNL1        0.2449
@<TRIPOS>BOND
     1    16    17    2
     2    17    18    2
     3    17    19    1
     4    17     1    1
     5     1     2    2
     6     2     3    1
     7     3     4    2
     8     4     5    1
     9     5     6    2
    10     6    10    1
    11    10    11   ar
    12    11    12   ar
    13    12    13   ar
    14    13    14   ar
    15    14    15   ar
    16     6     7    1
    17     7     8    2
    18     8     9    1
    19     9     1    1
    20     8     4    1
    21    15    10   ar
    22    19    20    1
@<TRIPOS>MOLECULE
*****
 20 22 0 0 0
SMALL
GASTEIGER

@<TRIPOS>ATOM
      1 C          61.6187   89.2342   10.7717 C.2     1  UNL1        0.1197
      2 C          61.9150   90.3504    9.8146 C.2     1  UNL1        0.0209
      3 C          63.0028   91.3356   10.1248 C.2     1  UNL1        0.0512
      4 C          63.7942   91.2045   11.3923 C.2     1  UNL1        0.2322
      5 N          64.9176   92.0184   11.9628 N.2     1  UNL1       -0.0308
      6 C          65.3156   91.4051   13.2726 C.2     1  UNL1        0.3752
      7 N          64.4382   90.2123   13.5116 N.2     1  UNL1       -0.0347
      8 C          63.4979   90.0883   12.3494 C.2     1  UNL1        0.2192
      9 C          62.4101   89.1032   12.0391 C.3     1  UNL1        0.1252
     10 C          66.4006   91.8983   14.1835 C.ar    1  UNL1        0.0884
     11 C          66.0602   92.3832   15.5616 C.ar    1  UNL1        0.0077
     12 C          67.1451   92.8763   16.4725 C.ar    1  UNL1        0.0003
     13 C          68.5704   92.8845   16.0054 C.ar    1  UNL1        0.0000
     14 C          68.9109   92.3995   14.6273 C.ar    1  UNL1        0.0003
     15 C          67.8260   91.9064   13.7164 C.ar    1  UNL1        0.0077
     16 O          60.0880   89.1011    9.3091 O.2     1  UNL1       -0.1424
     17 S          60.5309   88.2491   10.4614 S.O2    1  UNL1        0.1074
     18 O          60.9739   87.3970   11.6137 O.2     1  UNL1       -0.1424
     19 O          59.4432   87.2639   10.1512 O.3     1  UNL1       -0.2500
     20 H          58.9387   87.0746   10.9577 H       1  UNL1        0.2449
@<TRIPOS>BOND
     1    16    17    2
     2    17    18    2
     3    17    19    1
     4    17     1    1
     5     1     2    2
     6     2     3    1
     7     3     4    2
     8     4     5    1
     9     5     6    2
    10     6    10    1
    11    10    11   ar
    12    11    12   ar
    13    12    13   ar
    14    13    14   ar
    15    14    15   ar
    16     6     7    1
    17     7     8    2
    18     8     9    1
    19     9     1    1
    20     8     4    1
    21    15    10   ar
    22    19    20    1
@<TRIPOS>MOLECULE
*****
 20 22 0 0 0
SMALL
GASTEIGER

@<TRIPOS>ATOM
      1 C          63.1295   83.3046   12.9508 C.2     1  UNL1        0.1197
      2 C          62.6710   83.9603   11.6821 C.2     1  UNL1        0.0209
      3 C          62.7120   85.4542   11.5526 C.2     1  UNL1        0.0512
      4 C          63.2114   86.2923   12.6920 C.2     1  UNL1        0.2322
      5 N          63.3665   87.7753   12.8545 N.2     1  UNL1       -0.0308
      6 C          63.9208   88.0362   14.2237 C.2     1  UNL1        0.3752
      7 N          64.1083   86.7143   14.9074 N.2     1  UNL1       -0.0347
      8 C          63.6699   85.6365   13.9607 C.2     1  UNL1        0.2192
      9 C          63.6289   84.1427   14.0901 C.3     1  UNL1        0.1252
     10 C          64.2328   89.3826   14.8068 C.ar    1  UNL1        0.0884
     11 C          65.2821   90.2486   14.1751 C.ar    1  UNL1        0.0077
     12 C          65.5941   91.5949   14.7581 C.ar    1  UNL1        0.0003
     13 C          64.8568   92.0753   15.9728 C.ar    1  UNL1        0.0000
     14 C          63.8075   91.2093   16.6045 C.ar    1  UNL1        0.0003
     15 C          63.4955   89.8630   16.0215 C.ar    1  UNL1        0.0077
     16 O          62.7524   81.6937   11.6230 O.2     1  UNL1       -0.1424
     17 S          63.0886   81.8107   13.0802 S.O2    1  UNL1        0.1074
     18 O          63.4248   81.9277   14.5373 O.2     1  UNL1       -0.1424
     19 O          63.0476   80.3169   13.2096 O.3     1  UNL1       -0.2500
     20 H          62.4781   80.0725   13.9558 H       1  UNL1        0.2449
@<TRIPOS>BOND
     1    16    17    2
     2    17    18    2
     3    17    19    1
     4    17     1    1
     5     1     2    2
     6     2     3    1
     7     3     4    2
     8     4     5    1
     9     5     6    2
    10     6    10    1
    11    10    11   ar
    12    11    12   ar
    13    12    13   ar
    14    13    14   ar
    15    14    15   ar
    16     6     7    1
    17     7     8    2
    18     8     9    1
    19     9     1    1
    20     8     4    1
    21    15    10   ar
    22    19    20    1
