@<TRIPOS>MOLECULE
*****
 29 31 0 0 0
SMALL
GASTEIGER

@<TRIPOS>ATOM
      1 C          63.6202   87.3397   13.4261 C.ar    1  UNL1        0.0177
      2 C          64.1523   86.5866   14.6091 C.ar    1  UNL1        0.0013
      3 C          63.8670   85.1212   14.7555 C.ar    1  UNL1       -0.0016
      4 C          63.0495   84.4091   13.7188 C.ar    1  UNL1        0.0070
      5 C          62.5174   85.1623   12.5358 C.ar    1  UNL1       -0.0016
      6 C          62.8027   86.6276   12.3895 C.ar    1  UNL1        0.0013
      7 C          65.0146   90.9809   14.1662 C.ar    1  UNL1        0.1341
      8 C          64.4762   91.7357   12.9871 C.ar    1  UNL1        0.0345
      9 C          63.6524   91.0252   11.9543 C.ar    1  UNL1        0.0044
     10 C          63.3671   89.5599   12.1006 C.ar    1  UNL1        0.0192
     11 C          63.9055   88.8051   13.2797 C.ar    1  UNL1        0.0827
     12 N          64.7293   89.5156   14.3125 N.ar    1  UNL1       -0.2305
     13 C          68.0914   92.7515   15.9404 C.3     1  UNL1        0.0950
     14 C          67.2677   92.0410   14.9077 C.2     1  UNL1        0.2277
     15 O          67.8732   91.6802   13.5836 O.2     1  UNL1       -0.2747
     16 N          65.8384   91.6914   15.1989 N.am    1  UNL1       -0.2693
     17 H          65.4409   91.9282   16.0679 H       1  UNL1        0.1563
     18 C          62.7642   82.9438   13.8651 C.3     1  UNL1        0.1410
     19 O          62.1778   83.1936   15.2230 O.3     1  UNL1       -0.3771
     20 H          62.2254   84.1408   15.4264 H       1  UNL1        0.2112
     21 C          63.3506   82.6940   12.5073 C.ar    1  UNL1        0.0825
     22 C          64.7081   83.1281   12.0397 C.ar    1  UNL1        0.1157
     23 N          64.8790   82.6686   10.6220 N.ar    1  UNL1       -0.2228
     24 C          63.6269   81.9505   10.2135 C.ar    1  UNL1        0.1749
     25 N          62.6824   81.9662   11.3786 N.ar    1  UNL1       -0.3361
     26 H          61.7820   81.5686   11.3990 H       1  UNL1        0.1673
     27 C          62.4789   81.4785   14.0115 C.3     1  UNL1        0.0340
     28 C          63.6095   80.4931   14.0364 C.3     1  UNL1        0.0031
     29 C          61.0629   80.9986   14.1329 C.3     1  UNL1        0.0031
@<TRIPOS>BOND
     1    13    14    1
     2    14    15    2
     3    14    16   am
     4    16     7    1
     5     7     8   ar
     6     8     9   ar
     7     9    10   ar
     8    10    11   ar
     9    11     1    1
    10     1     2   ar
    11     2     3   ar
    12     3     4   ar
    13     4    18    1
    14    18    19    1
    15    18    21    1
    16    21    22   ar
    17    22    23   ar
    18    23    24   ar
    19    24    25   ar
    20    18    27    1
    21    27    28    1
    22    27    29    1
    23     4     5   ar
    24     5     6   ar
    25    11    12   ar
    26    12     7   ar
    27     6     1   ar
    28    25    21   ar
    29    16    17    1
    30    19    20    1
    31    25    26    1
@<TRIPOS>MOLECULE
*****
 29 31 0 0 0
SMALL
GASTEIGER

@<TRIPOS>ATOM
      1 C          61.8969   88.8941   10.4230 C.ar    1  UNL1        0.0177
      2 C          62.5540   88.0099   11.4410 C.ar    1  UNL1        0.0013
      3 C          63.4132   88.6111   12.5136 C.ar    1  UNL1       -0.0016
      4 C          63.6154   90.0964   12.5681 C.ar    1  UNL1        0.0070
      5 C          62.9583   90.9805   11.5499 C.ar    1  UNL1       -0.0016
      6 C          62.0991   90.3794   10.4774 C.ar    1  UNL1        0.0013
      7 C          59.2406   88.5607    7.4933 C.ar    1  UNL1        0.1341
      8 C          59.3192   87.0908    7.2053 C.ar    1  UNL1        0.0345
      9 C          60.2571   86.2219    7.9898 C.ar    1  UNL1        0.0044
     10 C          61.1163   86.8230    9.0623 C.ar    1  UNL1        0.0192
     11 C          61.0377   88.2929    9.3504 C.ar    1  UNL1        0.0827
     12 N          60.0998   89.1618    8.5659 N.ar    1  UNL1       -0.2305
     13 C          57.9070   91.2714    4.9197 C.3     1  UNL1        0.0950
     14 C          58.8449   90.4025    5.7042 C.2     1  UNL1        0.2277
     15 O          60.3250   90.5066    5.4840 O.2     1  UNL1       -0.2747
     16 N          58.3027   89.4296    6.7088 N.am    1  UNL1       -0.2693
     17 H          57.3313   89.3613    6.8533 H       1  UNL1        0.1563
     18 C          64.4746   90.6975   13.6406 C.3     1  UNL1        0.1410
     19 O          65.0197   91.6840   12.6509 O.3     1  UNL1       -0.3771
     20 H          64.6134   91.5302   11.7837 H       1  UNL1        0.2112
     21 C          63.9294   89.7110   14.6303 C.ar    1  UNL1        0.0825
     22 C          64.4877   88.3484   14.9159 C.ar    1  UNL1        0.1157
     23 N          63.6335   87.7091   15.9703 N.ar    1  UNL1       -0.2228
     24 C          62.5473   88.6767   16.3364 C.ar    1  UNL1        0.1749
     25 N          62.7301   89.9139   15.5083 N.ar    1  UNL1       -0.3361
     26 H          62.1627   90.7179   15.5360 H       1  UNL1        0.1673
     27 C          65.3338   91.2987   14.7131 C.3     1  UNL1        0.0340
     28 C          64.6999   91.9070   15.9289 C.3     1  UNL1        0.0031
     29 C          66.8269   91.2916   14.5699 C.3     1  UNL1        0.0031
@<TRIPOS>BOND
     1    13    14    1
     2    14    15    2
     3    14    16   am
     4    16     7    1
     5     7     8   ar
     6     8     9   ar
     7     9    10   ar
     8    10    11   ar
     9    11     1    1
    10     1     2   ar
    11     2     3   ar
    12     3     4   ar
    13     4    18    1
    14    18    19    1
    15    18    21    1
    16    21    22   ar
    17    22    23   ar
    18    23    24   ar
    19    24    25   ar
    20    18    27    1
    21    27    28    1
    22    27    29    1
    23     4     5   ar
    24     5     6   ar
    25    11    12   ar
    26    12     7   ar
    27     6     1   ar
    28    25    21   ar
    29    16    17    1
    30    19    20    1
    31    25    26    1
@<TRIPOS>MOLECULE
*****
 29 31 0 0 0
SMALL
GASTEIGER

@<TRIPOS>ATOM
      1 C          64.1724   89.1819   14.7053 C.ar    1  UNL1        0.0177
      2 C          65.1978   90.1232   15.2643 C.ar    1  UNL1        0.0013
      3 C          65.7063   91.2605   14.4288 C.ar    1  UNL1       -0.0016
      4 C          65.1894   91.4565   13.0344 C.ar    1  UNL1        0.0070
      5 C          64.1640   90.5151   12.4754 C.ar    1  UNL1       -0.0016
      6 C          63.6555   89.3779   13.3109 C.ar    1  UNL1        0.0013
      7 C          63.2632   85.4989   15.8711 C.ar    1  UNL1        0.1341
      8 C          62.6468   85.7699   17.2115 C.ar    1  UNL1        0.0345
      9 C          62.5389   87.1782   17.7164 C.ar    1  UNL1        0.0044
     10 C          63.0474   88.3156   16.8811 C.ar    1  UNL1        0.0192
     11 C          63.6638   88.0445   15.5407 C.ar    1  UNL1        0.0827
     12 N          63.7717   86.6362   15.0358 N.ar    1  UNL1       -0.2305
     13 C          62.9535   82.3309   13.5010 C.3     1  UNL1        0.0950
     14 C          62.8456   83.7392   14.0059 C.2     1  UNL1        0.2277
     15 O          62.2121   84.7962   13.1506 O.2     1  UNL1       -0.2747
     16 N          63.3711   84.0906   15.3662 N.am    1  UNL1       -0.2693
     17 H          63.7869   83.3969   15.9276 H       1  UNL1        0.1563
     18 C          65.6979   92.5938   12.1990 C.3     1  UNL1        0.1410
     19 O          64.6404   92.3129   11.1729 O.3     1  UNL1       -0.3771
     20 H          64.1025   91.5589   11.4611 H       1  UNL1        0.2112
     21 C          66.7554   92.8747   13.2250 C.ar    1  UNL1        0.0825
     22 C          68.1193   92.2527   13.2785 C.ar    1  UNL1        0.1157
     23 N          68.8416   92.8205   14.4643 N.ar    1  UNL1       -0.2228
     24 C          67.9240   93.7935   15.1437 C.ar    1  UNL1        0.1749
     25 N          66.6347   93.8269   14.3777 N.ar    1  UNL1       -0.3361
     26 H          65.8475   94.3773   14.5937 H       1  UNL1        0.1673
     27 C          66.2064   93.7310   11.3635 C.3     1  UNL1        0.0340
     28 C          66.8742   93.4559   10.0488 C.3     1  UNL1        0.0031
     29 C          66.0472   95.1435   11.8428 C.3     1  UNL1        0.0031
@<TRIPOS>BOND
     1    13    14    1
     2    14    15    2
     3    14    16   am
     4    16     7    1
     5     7     8   ar
     6     8     9   ar
     7     9    10   ar
     8    10    11   ar
     9    11     1    1
    10     1     2   ar
    11     2     3   ar
    12     3     4   ar
    13     4    18    1
    14    18    19    1
    15    18    21    1
    16    21    22   ar
    17    22    23   ar
    18    23    24   ar
    19    24    25   ar
    20    18    27    1
    21    27    28    1
    22    27    29    1
    23     4     5   ar
    24     5     6   ar
    25    11    12   ar
    26    12     7   ar
    27     6     1   ar
    28    25    21   ar
    29    16    17    1
    30    19    20    1
    31    25    26    1
@<TRIPOS>MOLECULE
*****
 29 31 0 0 0
SMALL
GASTEIGER

@<TRIPOS>ATOM
      1 C          63.2306   89.2945   12.1022 C.ar    1  UNL1        0.0177
      2 C          63.8867   89.0022   13.4191 C.ar    1  UNL1        0.0013
      3 C          64.7610   90.0347   14.0670 C.ar    1  UNL1       -0.0016
      4 C          64.9791   91.3594   13.3980 C.ar    1  UNL1        0.0070
      5 C          64.3231   91.6516   12.0811 C.ar    1  UNL1       -0.0016
      6 C          63.4488   90.6192   11.4332 C.ar    1  UNL1        0.0013
      7 C          61.8191   85.7736   10.9356 C.ar    1  UNL1        0.1341
      8 C          60.6080   86.1972   10.1585 C.ar    1  UNL1        0.0345
      9 C          60.2710   87.6531   10.0294 C.ar    1  UNL1        0.0044
     10 C          61.1452   88.6856   10.6773 C.ar    1  UNL1        0.0192
     11 C          62.3564   88.2620   11.4543 C.ar    1  UNL1        0.0827
     12 N          62.6933   86.8061   11.5834 N.ar    1  UNL1       -0.2305
     13 C          62.8363   82.2876   12.5363 C.3     1  UNL1        0.0950
     14 C          62.4993   83.7435   12.4072 C.2     1  UNL1        0.2277
     15 O          62.5058   84.6253   13.6207 O.2     1  UNL1       -0.2747
     16 N          62.1560   84.3177   11.0647 N.am    1  UNL1       -0.2693
     17 H          62.1517   83.7389   10.2683 H       1  UNL1        0.1563
     18 C          65.8534   92.3918   14.0458 C.3     1  UNL1        0.1410
     19 O          64.9856   92.3592   15.2689 O.3     1  UNL1       -0.3771
     20 H          64.2655   91.7227   15.1375 H       1  UNL1        0.2112
     21 C          66.7212   92.4245   12.8228 C.ar    1  UNL1        0.0825
     22 C          68.0371   91.7239   12.6565 C.ar    1  UNL1        0.1157
     23 N          68.5546   92.0299   11.2821 N.ar    1  UNL1       -0.2228
     24 C          67.5585   92.9196   10.5992 C.ar    1  UNL1        0.1749
     25 N          66.4254   93.1634   11.5513 N.ar    1  UNL1       -0.3361
     26 H          65.6277   93.7121   11.3730 H       1  UNL1        0.1673
     27 C          66.7276   93.4243   14.6937 C.3     1  UNL1        0.0340
     28 C          66.8913   94.7735   14.0591 C.3     1  UNL1        0.0031
     29 C          67.4382   93.1075   15.9762 C.3     1  UNL1        0.0031
@<TRIPOS>BOND
     1    13    14    1
     2    14    15    2
     3    14    16   am
     4    16     7    1
     5     7     8   ar
     6     8     9   ar
     7     9    10   ar
     8    10    11   ar
     9    11     1    1
    10     1     2   ar
    11     2     3   ar
    12     3     4   ar
    13     4    18    1
    14    18    19    1
    15    18    21    1
    16    21    22   ar
    17    22    23   ar
    18    23    24   ar
    19    24    25   ar
    20    18    27    1
    21    27    28    1
    22    27    29    1
    23     4     5   ar
    24     5     6   ar
    25    11    12   ar
    26    12     7   ar
    27     6     1   ar
    28    25    21   ar
    29    16    17    1
    30    19    20    1
    31    25    26    1
@<TRIPOS>MOLECULE
*****
 29 31 0 0 0
SMALL
GASTEIGER

@<TRIPOS>ATOM
      1 C          62.1936   89.1459   10.5631 C.ar    1  UNL1        0.0177
      2 C          62.7875   88.3244   11.6688 C.ar    1  UNL1        0.0013
      3 C          63.6702   88.9726   12.6938 C.ar    1  UNL1       -0.0016
      4 C          63.9591   90.4423   12.6131 C.ar    1  UNL1        0.0070
      5 C          63.3652   91.2638   11.5073 C.ar    1  UNL1       -0.0016
      6 C          62.4825   90.6156   10.4824 C.ar    1  UNL1        0.0013
      7 C          59.4586   88.6799    7.7254 C.ar    1  UNL1        0.1341
      8 C          59.5454   87.2014    7.4881 C.ar    1  UNL1        0.0345
      9 C          60.5149   86.3710    8.2758 C.ar    1  UNL1        0.0044
     10 C          61.3977   87.0191    9.3008 C.ar    1  UNL1        0.0192
     11 C          61.3109   88.4976    9.5381 C.ar    1  UNL1        0.0827
     12 N          60.3413   89.3280    8.7504 N.ar    1  UNL1       -0.2305
     13 C          58.0127   91.2120    5.0333 C.3     1  UNL1        0.0950
     14 C          58.9823   90.3816    5.8209 C.2     1  UNL1        0.2277
     15 O          60.4452   90.4226    5.4917 O.2     1  UNL1       -0.2747
     16 N          58.4890   89.5103    6.9378 N.am    1  UNL1       -0.2693
     17 H          57.5289   89.4834    7.1538 H       1  UNL1        0.1563
     18 C          64.8418   91.0906   13.6380 C.3     1  UNL1        0.1410
     19 O          64.3099   90.1583   14.6858 O.3     1  UNL1       -0.3771
     20 H          63.6571   89.5621   14.2867 H       1  UNL1        0.2112
     21 C          65.3738   92.0229   12.5903 C.ar    1  UNL1        0.0825
     22 C          65.9819   91.6211   11.2793 C.ar    1  UNL1        0.1157
     23 N          66.3750   92.8706   10.5483 N.ar    1  UNL1       -0.2228
     24 C          66.0097   94.0447   11.4075 C.ar    1  UNL1        0.1749
     25 N          65.3909   93.5207   12.6695 N.ar    1  UNL1       -0.3361
     26 H          65.0550   94.0645   13.4183 H       1  UNL1        0.1673
     27 C          65.7245   91.7388   14.6630 C.3     1  UNL1        0.0340
     28 C          65.1199   92.3711   15.8814 C.3     1  UNL1        0.0031
     29 C          67.2120   91.7548   14.4695 C.3     1  UNL1        0.0031
@<TRIPOS>BOND
     1    13    14    1
     2    14    15    2
     3    14    16   am
     4    16     7    1
     5     7     8   ar
     6     8     9   ar
     7     9    10   ar
     8    10    11   ar
     9    11     1    1
    10     1     2   ar
    11     2     3   ar
    12     3     4   ar
    13     4    18    1
    14    18    19    1
    15    18    21    1
    16    21    22   ar
    17    22    23   ar
    18    23    24   ar
    19    24    25   ar
    20    18    27    1
    21    27    28    1
    22    27    29    1
    23     4     5   ar
    24     5     6   ar
    25    11    12   ar
    26    12     7   ar
    27     6     1   ar
    28    25    21   ar
    29    16    17    1
    30    19    20    1
    31    25    26    1
@<TRIPOS>MOLECULE
*****
 29 31 0 0 0
SMALL
GASTEIGER

@<TRIPOS>ATOM
      1 C          63.8196   87.4776   14.0690 C.ar    1  UNL1        0.0177
      2 C          63.1288   86.8830   12.8776 C.ar    1  UNL1        0.0013
      3 C          62.8240   85.4147   12.8428 C.ar    1  UNL1       -0.0016
      4 C          63.2099   84.5410   13.9994 C.ar    1  UNL1        0.0070
      5 C          63.9006   85.1356   15.1908 C.ar    1  UNL1       -0.0016
      6 C          64.2055   86.6038   15.2256 C.ar    1  UNL1        0.0013
      7 C          64.6235   91.1703   12.8578 C.ar    1  UNL1        0.1341
      8 C          64.7341   91.8824   14.1733 C.ar    1  UNL1        0.0345
      9 C          64.5399   91.1262   15.4541 C.ar    1  UNL1        0.0044
     10 C          64.2350   89.6579   15.4193 C.ar    1  UNL1        0.0192
     11 C          64.1244   88.9459   14.1038 C.ar    1  UNL1        0.0827
     12 N          64.3187   89.7021   12.8230 N.ar    1  UNL1       -0.2305
     13 C          66.3092   93.3873   10.0306 C.3     1  UNL1        0.0950
     14 C          66.1150   92.6311   11.3113 C.2     1  UNL1        0.2277
     15 O          67.2181   92.5795   12.3265 O.2     1  UNL1       -0.2747
     16 N          64.8177   91.9266   11.5770 N.am    1  UNL1       -0.2693
     17 H          64.0937   91.9604   10.9107 H       1  UNL1        0.1563
     18 C          62.9050   83.0727   13.9647 C.3     1  UNL1        0.1410
     19 O          62.3754   83.1495   15.3659 O.3     1  UNL1       -0.3771
     20 H          62.4471   84.0612   15.6892 H       1  UNL1        0.2112
     21 C          63.4347   82.9959   12.5634 C.ar    1  UNL1        0.0825
     22 C          64.8677   83.1616   12.1521 C.ar    1  UNL1        0.1157
     23 N          64.9429   83.0081   10.6618 N.ar    1  UNL1       -0.2228
     24 C          63.5564   82.7474   10.1521 C.ar    1  UNL1        0.1749
     25 N          62.6243   82.7399   11.3273 N.ar    1  UNL1       -0.3361
     26 H          61.6515   82.5928   11.2933 H       1  UNL1        0.1673
     27 C          62.6002   81.6045   13.9299 C.3     1  UNL1        0.0340
     28 C          61.1851   81.1286   14.0747 C.3     1  UNL1        0.0031
     29 C          63.7106   80.6119   13.7504 C.3     1  UNL1        0.0031
@<TRIPOS>BOND
     1    13    14    1
     2    14    15    2
     3    14    16   am
     4    16     7    1
     5     7     8   ar
     6     8     9   ar
     7     9    10   ar
     8    10    11   ar
     9    11     1    1
    10     1     2   ar
    11     2     3   ar
    12     3     4   ar
    13     4    18    1
    14    18    19    1
    15    18    21    1
    16    21    22   ar
    17    22    23   ar
    18    23    24   ar
    19    24    25   ar
    20    18    27    1
    21    27    28    1
    22    27    29    1
    23     4     5   ar
    24     5     6   ar
    25    11    12   ar
    26    12     7   ar
    27     6     1   ar
    28    25    21   ar
    29    16    17    1
    30    19    20    1
    31    25    26    1
@<TRIPOS>MOLECULE
*****
 29 31 0 0 0
SMALL
GASTEIGER

@<TRIPOS>ATOM
      1 C          63.0554   89.8859   12.1553 C.ar    1  UNL1        0.0177
      2 C          63.6763   89.2768   13.3774 C.ar    1  UNL1        0.0013
      3 C          64.7657   90.0049   14.1075 C.ar    1  UNL1       -0.0016
      4 C          65.2343   91.3422   13.6154 C.ar    1  UNL1        0.0070
      5 C          64.6134   91.9514   12.3933 C.ar    1  UNL1       -0.0016
      6 C          63.5240   91.2232   11.6633 C.ar    1  UNL1        0.0013
      7 C          61.2063   87.5999    9.4899 C.ar    1  UNL1        0.1341
      8 C          59.7872   87.7015    9.9651 C.ar    1  UNL1        0.0345
      9 C          59.4575   88.5313   11.1704 C.ar    1  UNL1        0.0044
     10 C          60.5469   89.2594   11.9005 C.ar    1  UNL1        0.0192
     11 C          61.9659   89.1578   11.4252 C.ar    1  UNL1        0.0827
     12 N          62.2956   88.3280   10.2199 N.ar    1  UNL1       -0.2305
     13 C          62.7010   84.7032    7.2260 C.3     1  UNL1        0.0950
     14 C          62.3714   85.5330    8.4313 C.2     1  UNL1        0.2277
     15 O          62.8771   85.1256    9.7835 O.2     1  UNL1       -0.2747
     16 N          61.5359   86.7701    8.2845 N.am    1  UNL1       -0.2693
     17 H          61.2040   87.0375    7.3971 H       1  UNL1        0.1563
     18 C          66.3237   92.0703   14.3455 C.3     1  UNL1        0.1410
     19 O          65.6023   91.8497   15.6420 O.3     1  UNL1       -0.3771
     20 H          64.7826   91.3582   15.4763 H       1  UNL1        0.2112
     21 C          67.0450   92.2909   13.0490 C.ar    1  UNL1        0.0825
     22 C          68.2041   91.4881   12.5372 C.ar    1  UNL1        0.1157
     23 N          68.6094   92.0541   11.2084 N.ar    1  UNL1       -0.2228
     24 C          67.7007   93.2068   10.8990 C.ar    1  UNL1        0.1749
     25 N          66.7339   93.3532   12.0365 N.ar    1  UNL1       -0.3361
     26 H          66.0204   94.0279   12.1063 H       1  UNL1        0.1673
     27 C          67.4131   92.7985   15.0755 C.3     1  UNL1        0.0340
     28 C          67.5979   94.2728   14.8702 C.3     1  UNL1        0.0031
     29 C          68.3177   92.0523   16.0109 C.3     1  UNL1        0.0031
@<TRIPOS>BOND
     1    13    14    1
     2    14    15    2
     3    14    16   am
     4    16     7    1
     5     7     8   ar
     6     8     9   ar
     7     9    10   ar
     8    10    11   ar
     9    11     1    1
    10     1     2   ar
    11     2     3   ar
    12     3     4   ar
    13     4    18    1
    14    18    19    1
    15    18    21    1
    16    21    22   ar
    17    22    23   ar
    18    23    24   ar
    19    24    25   ar
    20    18    27    1
    21    27    28    1
    22    27    29    1
    23     4     5   ar
    24     5     6   ar
    25    11    12   ar
    26    12     7   ar
    27     6     1   ar
    28    25    21   ar
    29    16    17    1
    30    19    20    1
    31    25    26    1
