@<TRIPOS>MOLECULE
*****
 42 47 0 0 0
SMALL
GASTEIGER

@<TRIPOS>ATOM
      1 N          60.4160   94.0174   -1.8526 N.am    1  UNL1       -0.2222
      2 C          58.9615   94.3844   -1.8614 C.2     1  UNL1        0.3219
      3 O          58.0764   94.5089   -0.6568 O.2     1  UNL1       -0.2512
      4 N          58.5477   94.6049   -3.2862 N.am    1  UNL1       -0.1907
      5 C          59.7463   94.3743   -4.1580 C.2     1  UNL1        0.2529
      6 O          59.7838   94.4870   -5.6533 O.2     1  UNL1       -0.2724
      7 C          60.9010   94.0112   -3.2721 C.3     1  UNL1        0.1391
      8 C          61.9568   93.6632   -2.2650 C.3     1  UNL1        0.0449
      9 C          63.3516   93.3490   -2.7188 C.3     1  UNL1        0.0746
     10 N          63.6905   93.3830   -4.1796 N.3     1  UNL1       -0.2676
     11 C          62.6348   93.7311   -5.1866 C.3     1  UNL1        0.0746
     12 C          61.2400   94.0452   -4.7329 C.3     1  UNL1        0.0449
     13 C          62.7339   94.5155    1.3300 C.ar    1  UNL1        0.2293
     14 C          61.9093   94.8223    0.1151 C.ar    1  UNL1        0.0924
     15 C          61.2406   93.7106   -0.6378 C.ar    1  UNL1        0.1453
     16 N          61.3965   92.2920   -0.1758 N.ar    1  UNL1       -0.2084
     17 C          62.2210   91.9851    1.0390 C.ar    1  UNL1        0.2027
     18 N          62.8898   93.0969    1.7919 N.ar    1  UNL1       -0.1892
     19 C          64.8838   95.5896    2.3168 C.3     1  UNL1        0.2542
     20 O          63.4027   95.6271    2.0829 O.3     1  UNL1       -0.4560
     21 C          57.1761   94.9887   -3.7566 C.ar    1  UNL1        0.0622
     22 C          56.5233   96.2323   -3.2301 C.ar    1  UNL1        0.0154
     23 C          55.1516   96.6161   -3.7005 C.ar    1  UNL1        0.0018
     24 C          54.4328   95.7562   -4.6974 C.ar    1  UNL1        0.0061
     25 C          55.0855   94.5125   -5.2240 C.ar    1  UNL1        0.0018
     26 C          56.4572   94.1288   -4.7535 C.ar    1  UNL1        0.0154
     27 C          53.0611   96.1400   -5.1678 C.ar    1  UNL1        0.0295
     28 C          52.6933   96.5680   -6.5577 C.ar    1  UNL1        0.0070
     29 C          51.2213   96.8557   -6.5798 C.ar    1  UNL1        0.0081
     30 C          50.6794   96.6055   -5.2037 C.ar    1  UNL1        0.0434
     31 S          51.8164   96.1632   -4.3310 S.2     1  UNL1       -0.0858
     32 C          49.2512   96.7689   -4.7754 C.2     1  UNL1        0.0789
     33 O          48.9104   96.8528   -3.3170 O.co2   1  UNL1       -0.5441
     34 O          48.1637   96.8484   -5.8054 O.co2   1  UNL1       -0.5441
     35 C          65.0854   93.0689   -4.6333 C.3     1  UNL1        0.1183
     36 C          65.8459   94.0612   -5.4620 C.ar    1  UNL1        0.0712
     37 N          66.6182   93.6005   -6.6626 N.ar    1  UNL1       -0.2471
     38 C          67.3787   94.5930   -7.4913 C.ar    1  UNL1        0.0985
     39 C          67.3669   96.0461   -7.1194 C.ar    1  UNL1        0.0203
     40 C          66.5946   96.5068   -5.9189 C.ar    1  UNL1       -0.0015
     41 C          65.8341   95.5144   -5.0902 C.ar    1  UNL1       -0.0069
     42 C          65.0617   95.9752   -3.8897 C.3     1  UNL1        0.0323
@<TRIPOS>UNITY_ATOM_ATTR
33 1
charge -1
@<TRIPOS>BOND
     1    19    20    1
     2    20    13    1
     3    13    14   ar
     4    14    15   ar
     5    15     1    1
     6     1     2   am
     7     2     3    2
     8     2     4   am
     9     4    21    1
    10    21    22   ar
    11    22    23   ar
    12    23    24   ar
    13    24    27    1
    14    27    28   ar
    15    28    29   ar
    16    29    30   ar
    17    30    32    1
    18    32    33   ar
    19    32    34   ar
    20    30    31   ar
    21    24    25   ar
    22    25    26   ar
    23     4     5   am
    24     5     6    2
    25     5     7    1
    26     7     8    1
    27     8     9    1
    28     9    10    1
    29    10    35    1
    30    35    36    1
    31    36    37   ar
    32    37    38   ar
    33    38    39   ar
    34    39    40   ar
    35    40    41   ar
    36    41    42    1
    37    10    11    1
    38    11    12    1
    39    15    16   ar
    40    16    17   ar
    41    17    18   ar
    42    18    13   ar
    43     7     1    1
    44    41    36   ar
    45    26    21   ar
    46    12     7    1
    47    31    27   ar
