@<TRIPOS>MOLECULE
*****
 44 48 0 0 0
SMALL
GASTEIGER

@<TRIPOS>ATOM
      1 C          61.6963   87.3881    9.9559 C.ar    1  UNL1        0.0611
      2 C          61.6502   85.8930    9.8429 C.ar    1  UNL1        0.0112
      3 C          62.2089   85.0402   10.9432 C.ar    1  UNL1        0.0208
      4 C          62.8137   85.6825   12.1564 C.ar    1  UNL1        0.1218
      5 N          62.8598   87.1775   12.2693 N.ar    1  UNL1       -0.2421
      6 C          62.3011   88.0303   11.1690 C.ar    1  UNL1        0.1068
      7 C          63.3725   84.8297   13.2566 C.3     1  UNL1        0.3254
      8 F          62.0186   84.2403   12.9924 F       1  UNL1       -0.1949
      9 F          64.6284   85.6498   13.2545 F       1  UNL1       -0.1949
     10 C          63.9312   83.9768   14.3569 C.3     1  UNL1        0.1932
     11 O          64.4899   83.1240   15.4571 O.3     1  UNL1       -0.3755
     12 H          64.8473   83.6925   16.1571 H       1  UNL1        0.2110
     13 C          63.5425   82.7429   13.5978 C.ar    1  UNL1        0.0367
     14 C          62.5236   81.8013   14.1681 C.ar    1  UNL1        0.0013
     15 C          62.1350   80.5673   13.4090 C.ar    1  UNL1        0.0113
     16 C          62.7651   80.2749   12.0796 C.ar    1  UNL1        0.0599
     17 CL         62.3765   79.0409   11.3205 Cl      1  UNL1       -0.0822
     18 C          63.7840   81.2165   11.5093 C.ar    1  UNL1        0.0408
     19 C          64.1727   82.4505   12.2684 C.ar    1  UNL1        0.1394
     20 F          65.1916   83.3921   11.6980 F       1  UNL1       -0.2044
     21 C          64.3199   85.2108   15.1160 C.3     1  UNL1        0.1679
     22 N          63.3095   85.9131   15.9738 N.ar    1  UNL1       -0.2078
     23 C          63.3910   87.3335   16.4487 C.ar    1  UNL1        0.2216
     24 N          62.1720   87.6165   17.2758 N.ar    1  UNL1       -0.1048
     25 N          61.3370   86.3709   17.3120 N.ar    1  UNL1       -0.0226
     26 N          62.0400   85.3181   16.5073 N.ar    1  UNL1       -0.0428
     27 C          60.5789   89.0937    7.7554 C.1     1  UNL1       -0.0597
     28 C          61.1376   88.2409    8.8556 C.1     1  UNL1       -0.0582
     29 C          58.9027   91.6521    4.4546 C.ar    1  UNL1        0.1391
     30 C          57.9767   90.9498    5.4030 C.ar    1  UNL1        0.0375
     31 C          58.5354   90.0970    6.5032 C.ar    1  UNL1        0.0114
     32 C          60.0202   89.9465    6.6551 C.ar    1  UNL1        0.0422
     33 C          60.9461   90.6488    5.7068 C.ar    1  UNL1        0.0114
     34 C          60.3874   91.5016    4.6066 C.ar    1  UNL1        0.0375
     35 O          58.3440   92.5049    3.3544 O.3     1  UNL1       -0.4706
     36 C          59.0006   92.5144    2.0058 C.3     1  UNL1        0.2320
     37 C          62.6756   95.0166    1.3101 C.ar    1  UNL1        0.0684
     38 C          61.3703   95.6771    1.6418 C.ar    1  UNL1        0.0101
     39 C          60.1453   94.8430    1.8737 C.ar    1  UNL1       -0.0000
     40 C          60.2256   93.3485    1.7739 C.ar    1  UNL1        0.0212
     41 C          61.5309   92.6881    1.4423 C.ar    1  UNL1       -0.0000
     42 C          62.7559   93.5222    1.2104 C.ar    1  UNL1        0.0101
     43 N          65.1255   96.6848    0.8463 N.1     1  UNL1       -0.1908
     44 C          63.9005   95.8507    1.0782 C.1     1  UNL1        0.1004
@<TRIPOS>BOND
     1    43    44    3
     2    44    37    1
     3    37    38   ar
     4    38    39   ar
     5    39    40   ar
     6    40    36    1
     7    36    35    1
     8    35    29    1
     9    29    30   ar
    10    30    31   ar
    11    31    32   ar
    12    32    27    1
    13    27    28    3
    14    28     1    1
    15     1     2   ar
    16     2     3   ar
    17     3     4   ar
    18     4     7    1
    19     7     8    1
    20     7     9    1
    21     7    10    1
    22    10    11    1
    23    10    21    1
    24    21    22    1
    25    22    23   ar
    26    23    24   ar
    27    24    25   ar
    28    25    26   ar
    29    10    13    1
    30    13    14   ar
    31    14    15   ar
    32    15    16   ar
    33    16    17    1
    34    16    18   ar
    35    18    19   ar
    36    19    20    1
    37     4     5   ar
    38     5     6   ar
    39    32    33   ar
    40    33    34   ar
    41    40    41   ar
    42    41    42   ar
    43    42    37   ar
    44    34    29   ar
    45     6     1   ar
    46    26    22   ar
    47    19    13   ar
    48    11    12    1
@<TRIPOS>MOLECULE
*****
 44 48 0 0 0
SMALL
GASTEIGER

@<TRIPOS>ATOM
      1 C          61.5798   88.1381    9.2801 C.ar    1  UNL1        0.0611
      2 C          62.1361   88.8334   10.4872 C.ar    1  UNL1        0.0112
      3 C          62.6664   88.0299   11.6376 C.ar    1  UNL1        0.0208
      4 C          62.6403   86.5312   11.5808 C.ar    1  UNL1        0.1218
      5 N          62.0840   85.8359   10.3736 N.ar    1  UNL1       -0.2421
      6 C          61.5538   86.6394    9.2233 C.ar    1  UNL1        0.1068
      7 C          63.1706   85.7277   12.7311 C.3     1  UNL1        0.3254
      8 F          62.1505   84.8274   12.0992 F       1  UNL1       -0.1949
      9 F          64.0895   86.8559   13.0955 F       1  UNL1       -0.1949
     10 C          63.7008   84.9242   13.8815 C.3     1  UNL1        0.1932
     11 O          64.2310   84.1208   15.0318 O.3     1  UNL1       -0.3755
     12 H          64.4925   84.7180   15.7500 H       1  UNL1        0.2110
     13 C          63.4594   83.6606   13.1101 C.ar    1  UNL1        0.0367
     14 C          64.2395   83.3850   11.8590 C.ar    1  UNL1        0.0013
     15 C          63.9981   82.1214   11.0876 C.ar    1  UNL1        0.0113
     16 C          62.9767   81.1333   11.5675 C.ar    1  UNL1        0.0599
     17 CL         62.7353   79.8697   10.7962 Cl      1  UNL1       -0.0822
     18 C          62.1966   81.4089   12.8187 C.ar    1  UNL1        0.0408
     19 C          62.4380   82.6725   13.5900 C.ar    1  UNL1        0.1394
     20 F          61.6578   82.9481   14.8412 F       1  UNL1       -0.2044
     21 C          63.9422   86.1879   14.6528 C.3     1  UNL1        0.1679
     22 N          63.2713   86.3975   15.9779 N.ar    1  UNL1       -0.2078
     23 C          63.3947   87.6145   16.8458 C.ar    1  UNL1        0.2216
     24 N          62.5587   87.3960   18.0721 N.ar    1  UNL1       -0.1048
     25 N          61.9188   86.0439   17.9620 N.ar    1  UNL1       -0.0226
     26 N          62.3591   85.4268   16.6677 N.ar    1  UNL1       -0.0428
     27 C          60.5193   89.7450    6.9794 C.1     1  UNL1       -0.0597
     28 C          61.0496   88.9415    8.1297 C.1     1  UNL1       -0.0582
     29 C          58.9286   92.1553    3.5283 C.ar    1  UNL1        0.1391
     30 C          60.4068   91.9521    3.6830 C.ar    1  UNL1        0.0375
     31 C          60.9370   91.1487    4.8333 C.ar    1  UNL1        0.0114
     32 C          59.9891   90.5484    5.8290 C.ar    1  UNL1        0.0422
     33 C          58.5110   90.7517    5.6743 C.ar    1  UNL1        0.0114
     34 C          57.9808   91.5551    4.5240 C.ar    1  UNL1        0.0375
     35 O          58.3984   92.9588    2.3780 O.3     1  UNL1       -0.4706
     36 C          59.3029   93.3250    1.2388 C.3     1  UNL1        0.2320
     37 C          57.9742   92.6270   -3.0035 C.ar    1  UNL1        0.0684
     38 C          57.0268   92.3711   -1.8691 C.ar    1  UNL1        0.0101
     39 C          57.4697   92.6038   -0.4550 C.ar    1  UNL1       -0.0000
     40 C          58.8600   93.0924   -0.1753 C.ar    1  UNL1        0.0212
     41 C          59.8074   93.3483   -1.3097 C.ar    1  UNL1       -0.0000
     42 C          59.3645   93.1156   -2.7238 C.ar    1  UNL1        0.0101
     43 N          57.0883   92.1617   -5.8317 N.1     1  UNL1       -0.1908
     44 C          57.5312   92.3944   -4.4176 C.1     1  UNL1        0.1004
@<TRIPOS>BOND
     1    43    44    3
     2    44    37    1
     3    37    38   ar
     4    38    39   ar
     5    39    40   ar
     6    40    36    1
     7    36    35    1
     8    35    29    1
     9    29    30   ar
    10    30    31   ar
    11    31    32   ar
    12    32    27    1
    13    27    28    3
    14    28     1    1
    15     1     2   ar
    16     2     3   ar
    17     3     4   ar
    18     4     7    1
    19     7     8    1
    20     7     9    1
    21     7    10    1
    22    10    11    1
    23    10    21    1
    24    21    22    1
    25    22    23   ar
    26    23    24   ar
    27    24    25   ar
    28    25    26   ar
    29    10    13    1
    30    13    14   ar
    31    14    15   ar
    32    15    16   ar
    33    16    17    1
    34    16    18   ar
    35    18    19   ar
    36    19    20    1
    37     4     5   ar
    38     5     6   ar
    39    32    33   ar
    40    33    34   ar
    41    40    41   ar
    42    41    42   ar
    43    42    37   ar
    44    34    29   ar
    45     6     1   ar
    46    26    22   ar
    47    19    13   ar
    48    11    12    1
@<TRIPOS>MOLECULE
*****
 44 48 0 0 0
SMALL
GASTEIGER

@<TRIPOS>ATOM
      1 C          61.7146   87.4086    9.8810 C.ar    1  UNL1        0.0611
      2 C          61.6951   85.9135    9.7604 C.ar    1  UNL1        0.0112
      3 C          62.2286   85.0641   10.8757 C.ar    1  UNL1        0.0208
      4 C          62.7814   85.7097   12.1117 C.ar    1  UNL1        0.1218
      5 N          62.8009   87.2047   12.2323 N.ar    1  UNL1       -0.2421
      6 C          62.2674   88.0541   11.1169 C.ar    1  UNL1        0.1068
      7 C          63.3149   84.8603   13.2270 C.3     1  UNL1        0.3254
      8 F          64.4606   85.7639   12.8789 F       1  UNL1       -0.1949
      9 F          62.0011   84.1410   13.3075 F       1  UNL1       -0.1949
     10 C          63.8483   84.0109   14.3423 C.3     1  UNL1        0.1932
     11 O          64.3818   83.1615   15.4576 O.3     1  UNL1       -0.3755
     12 H          64.7160   83.7322   16.1672 H       1  UNL1        0.2110
     13 C          63.4887   82.7746   13.5728 C.ar    1  UNL1        0.0367
     14 C          62.4827   81.8110   14.1290 C.ar    1  UNL1        0.0013
     15 C          62.1230   80.5747   13.3595 C.ar    1  UNL1        0.0113
     16 C          62.7694   80.3020   12.0337 C.ar    1  UNL1        0.0599
     17 CL         62.4098   79.0657   11.2641 Cl      1  UNL1       -0.0822
     18 C          63.7754   81.2655   11.4774 C.ar    1  UNL1        0.0408
     19 C          64.1350   82.5018   12.2470 C.ar    1  UNL1        0.1394
     20 F          65.1411   83.4654   11.6906 F       1  UNL1       -0.2044
     21 C          64.2080   85.2472   15.1118 C.3     1  UNL1        0.1679
     22 N          63.1867   85.9079   15.9896 N.ar    1  UNL1       -0.2078
     23 C          63.2935   87.2790   16.5884 C.ar    1  UNL1        0.2216
     24 N          62.0520   87.5320   17.3916 N.ar    1  UNL1       -0.1048
     25 N          61.1781   86.3172   17.2891 N.ar    1  UNL1       -0.0226
     26 N          61.8793   85.3135   16.4226 N.ar    1  UNL1       -0.0428
     27 C          60.6477   89.1074    7.6504 C.1     1  UNL1       -0.0597
     28 C          61.1811   88.2580    8.7657 C.1     1  UNL1       -0.0582
     29 C          59.0473   91.6556    4.3044 C.ar    1  UNL1        0.1391
     30 C          60.5277   91.4805    4.4717 C.ar    1  UNL1        0.0375
     31 C          61.0611   90.6311    5.5870 C.ar    1  UNL1        0.0114
     32 C          60.1142   89.9568    6.5351 C.ar    1  UNL1        0.0422
     33 C          58.6339   90.1320    6.3678 C.ar    1  UNL1        0.0114
     34 C          58.1005   90.9814    5.2525 C.ar    1  UNL1        0.0375
     35 O          58.5139   92.5050    3.1891 O.3     1  UNL1       -0.4706
     36 C          59.4591   93.1482    2.2181 C.3     1  UNL1        0.2320
     37 C          58.0730   94.1483   -1.9446 C.ar    1  UNL1        0.0684
     38 C          57.9083   92.7552   -1.4137 C.ar    1  UNL1        0.0101
     39 C          58.3703   92.4218   -0.0261 C.ar    1  UNL1       -0.0000
     40 C          58.9971   93.4816    0.8306 C.ar    1  UNL1        0.0212
     41 C          59.1618   94.8747    0.2997 C.ar    1  UNL1       -0.0000
     42 C          58.6998   95.2081   -1.0879 C.ar    1  UNL1        0.0101
     43 N          57.1490   94.8151   -4.7198 N.1     1  UNL1       -0.1908
     44 C          57.6110   94.4817   -3.3322 C.1     1  UNL1        0.1004
@<TRIPOS>BOND
     1    43    44    3
     2    44    37    1
     3    37    38   ar
     4    38    39   ar
     5    39    40   ar
     6    40    36    1
     7    36    35    1
     8    35    29    1
     9    29    30   ar
    10    30    31   ar
    11    31    32   ar
    12    32    27    1
    13    27    28    3
    14    28     1    1
    15     1     2   ar
    16     2     3   ar
    17     3     4   ar
    18     4     7    1
    19     7     8    1
    20     7     9    1
    21     7    10    1
    22    10    11    1
    23    10    21    1
    24    21    22    1
    25    22    23   ar
    26    23    24   ar
    27    24    25   ar
    28    25    26   ar
    29    10    13    1
    30    13    14   ar
    31    14    15   ar
    32    15    16   ar
    33    16    17    1
    34    16    18   ar
    35    18    19   ar
    36    19    20    1
    37     4     5   ar
    38     5     6   ar
    39    32    33   ar
    40    33    34   ar
    41    40    41   ar
    42    41    42   ar
    43    42    37   ar
    44    34    29   ar
    45     6     1   ar
    46    26    22   ar
    47    19    13   ar
    48    11    12    1
@<TRIPOS>MOLECULE
*****
 44 48 0 0 0
SMALL
GASTEIGER

@<TRIPOS>ATOM
      1 C          61.4820   87.5107    9.3669 C.ar    1  UNL1        0.0611
      2 C          61.8325   86.0808    9.0792 C.ar    1  UNL1        0.0112
      3 C          62.3283   85.1937   10.1825 C.ar    1  UNL1        0.0208
      4 C          62.4735   85.7364   11.5734 C.ar    1  UNL1        0.1218
      5 N          62.1231   87.1662   11.8609 N.ar    1  UNL1       -0.2421
      6 C          61.6273   88.0534   10.7577 C.ar    1  UNL1        0.1068
      7 C          62.9693   84.8492   12.6766 C.3     1  UNL1        0.3254
      8 F          61.6511   85.3557   13.1827 F       1  UNL1       -0.1949
      9 F          64.2041   84.5485   11.8799 F       1  UNL1       -0.1949
     10 C          63.4651   83.9620   13.7798 C.3     1  UNL1        0.1932
     11 O          63.9608   83.0749   14.8831 O.3     1  UNL1       -0.3755
     12 H          64.0997   82.1784   14.5395 H       1  UNL1        0.2110
     13 C          63.4126   85.1187   14.7335 C.ar    1  UNL1        0.0367
     14 C          64.1655   86.3790   14.4260 C.ar    1  UNL1        0.0013
     15 C          64.1131   87.5356   15.3797 C.ar    1  UNL1        0.0113
     16 C          63.3077   87.4319   16.6408 C.ar    1  UNL1        0.0599
     17 CL         63.2553   88.5885   17.5945 Cl      1  UNL1       -0.0822
     18 C          62.5548   86.1716   16.9483 C.ar    1  UNL1        0.0408
     19 C          62.6073   85.0149   15.9947 C.ar    1  UNL1        0.1394
     20 F          61.8543   83.7545   16.3022 F       1  UNL1       -0.2044
     21 C          63.5175   82.8054   12.8262 C.3     1  UNL1        0.1679
     22 N          62.7113   81.5705   13.0999 N.ar    1  UNL1       -0.2078
     23 C          62.9204   80.2241   12.4728 C.ar    1  UNL1        0.2216
     24 N          61.8927   79.2866   13.0342 N.ar    1  UNL1       -0.1048
     25 N          61.0486   80.0536   14.0084 N.ar    1  UNL1       -0.0226
     26 N          61.5545   81.4651   14.0490 N.ar    1  UNL1       -0.0428
     27 C          60.4905   89.2851    7.1604 C.1     1  UNL1       -0.0597
     28 C          60.9863   88.3979    8.2636 C.1     1  UNL1       -0.0582
     29 C          59.0032   91.9466    3.8507 C.ar    1  UNL1        0.1391
     30 C          60.4737   91.6952    4.0074 C.ar    1  UNL1        0.0375
     31 C          60.9695   90.8080    5.1106 C.ar    1  UNL1        0.0114
     32 C          59.9948   90.1723    6.0571 C.ar    1  UNL1        0.0422
     33 C          58.5243   90.4237    5.9004 C.ar    1  UNL1        0.0114
     34 C          58.0286   91.3109    4.7971 C.ar    1  UNL1        0.0375
     35 O          58.5075   92.8338    2.7474 O.3     1  UNL1       -0.4706
     36 C          59.4497   93.2955    1.6755 C.3     1  UNL1        0.2320
     37 C          58.2822   92.9336   -2.6553 C.ar    1  UNL1        0.0684
     38 C          59.7170   93.1617   -2.2818 C.ar    1  UNL1        0.0101
     39 C          60.1061   93.2823   -0.8382 C.ar    1  UNL1       -0.0000
     40 C          59.0606   93.1748    0.2319 C.ar    1  UNL1        0.0212
     41 C          57.6259   92.9468   -0.1416 C.ar    1  UNL1       -0.0000
     42 C          57.2367   92.8262   -1.5852 C.ar    1  UNL1        0.0101
     43 N          57.5039   92.6924   -5.5425 N.1     1  UNL1       -0.1908
     44 C          57.8931   92.8130   -4.0989 C.1     1  UNL1        0.1004
@<TRIPOS>BOND
     1    43    44    3
     2    44    37    1
     3    37    38   ar
     4    38    39   ar
     5    39    40   ar
     6    40    36    1
     7    36    35    1
     8    35    29    1
     9    29    30   ar
    10    30    31   ar
    11    31    32   ar
    12    32    27    1
    13    27    28    3
    14    28     1    1
    15     1     2   ar
    16     2     3   ar
    17     3     4   ar
    18     4     7    1
    19     7     8    1
    20     7     9    1
    21     7    10    1
    22    10    11    1
    23    10    21    1
    24    21    22    1
    25    22    23   ar
    26    23    24   ar
    27    24    25   ar
    28    25    26   ar
    29    10    13    1
    30    13    14   ar
    31    14    15   ar
    32    15    16   ar
    33    16    17    1
    34    16    18   ar
    35    18    19   ar
    36    19    20    1
    37     4     5   ar
    38     5     6   ar
    39    32    33   ar
    40    33    34   ar
    41    40    41   ar
    42    41    42   ar
    43    42    37   ar
    44    34    29   ar
    45     6     1   ar
    46    26    22   ar
    47    19    13   ar
    48    11    12    1
@<TRIPOS>MOLECULE
*****
 44 48 0 0 0
SMALL
GASTEIGER

@<TRIPOS>ATOM
      1 C          60.3284   90.9492    5.1325 C.ar    1  UNL1        0.0611
      2 C          58.9735   91.5104    4.8169 C.ar    1  UNL1        0.0112
      3 C          58.7810   92.3660    3.6000 C.ar    1  UNL1        0.0208
      4 C          59.9433   92.6605    2.6987 C.ar    1  UNL1        0.1218
      5 N          61.2981   92.0993    3.0143 N.ar    1  UNL1       -0.2421
      6 C          61.4906   91.2437    4.2311 C.ar    1  UNL1        0.1068
      7 C          59.7508   93.5161    1.4818 C.3     1  UNL1        0.3254
      8 F          59.7563   94.4962    2.6175 F       1  UNL1       -0.1949
      9 F          59.7930   92.2927    0.6149 F       1  UNL1       -0.1949
     10 C          59.5582   94.3718    0.2649 C.3     1  UNL1        0.1932
     11 O          59.3657   95.2274   -0.9520 O.3     1  UNL1       -0.3755
     12 H          58.4968   95.0438   -1.3421 H       1  UNL1        0.2110
     13 C          60.9153   94.9754    0.4746 C.ar    1  UNL1        0.0367
     14 C          61.0594   96.2388    1.2703 C.ar    1  UNL1        0.0013
     15 C          62.4165   96.8424    1.4800 C.ar    1  UNL1        0.0113
     16 C          63.6295   96.1826    0.8940 C.ar    1  UNL1        0.0599
     17 CL         64.9865   96.7863    1.1038 Cl      1  UNL1       -0.0822
     18 C          63.4854   94.9193    0.0984 C.ar    1  UNL1        0.0408
     19 C          62.1283   94.3156   -0.1113 C.ar    1  UNL1        0.1394
     20 F          61.9842   93.0522   -0.9070 F       1  UNL1       -0.2044
     21 C          58.2011   93.7681    0.0552 C.3     1  UNL1        0.1679
     22 N          57.8041   93.2687   -1.3023 N.ar    1  UNL1       -0.2078
     23 C          56.4028   93.1565   -1.8254 C.ar    1  UNL1        0.2216
     24 N          56.4713   92.6122   -3.2215 N.ar    1  UNL1       -0.1048
     25 N          57.9150   92.3879   -3.5613 N.ar    1  UNL1       -0.0226
     26 N          58.7387   92.7936   -2.3752 N.ar    1  UNL1       -0.0428
     27 C          60.7134   89.2379    7.5662 C.1     1  UNL1       -0.0597
     28 C          60.5209   90.0936    6.3493 C.1     1  UNL1       -0.0582
     29 C          61.2910   86.6710   11.2169 C.ar    1  UNL1        0.1391
     30 C          61.3032   88.1658   11.3415 C.ar    1  UNL1        0.0375
     31 C          61.1107   89.0215   10.1246 C.ar    1  UNL1        0.0114
     32 C          60.9060   88.3823    8.7831 C.ar    1  UNL1        0.0422
     33 C          60.8938   86.8876    8.6585 C.ar    1  UNL1        0.0114
     34 C          61.0864   86.0319    9.8754 C.ar    1  UNL1        0.0375
     35 O          61.4836   85.8154   12.4338 O.3     1  UNL1       -0.4706
     36 C          62.7448   85.0207   12.5999 C.3     1  UNL1        0.2320
     37 C          62.9053   80.7402   11.2209 C.ar    1  UNL1        0.0684
     38 C          63.4293   81.8330   10.3371 C.ar    1  UNL1        0.0101
     39 C          63.3758   83.2598   10.7968 C.ar    1  UNL1       -0.0000
     40 C          62.7983   83.5938   12.1403 C.ar    1  UNL1        0.0212
     41 C          62.2743   82.5010   13.0240 C.ar    1  UNL1       -0.0000
     42 C          62.3278   81.0742   12.5644 C.ar    1  UNL1        0.0101
     43 N          63.0122   77.8865   10.3016 N.1     1  UNL1       -0.1908
     44 C          62.9587   79.3134   10.7612 C.1     1  UNL1        0.1004
@<TRIPOS>BOND
     1    43    44    3
     2    44    37    1
     3    37    38   ar
     4    38    39   ar
     5    39    40   ar
     6    40    36    1
     7    36    35    1
     8    35    29    1
     9    29    30   ar
    10    30    31   ar
    11    31    32   ar
    12    32    27    1
    13    27    28    3
    14    28     1    1
    15     1     2   ar
    16     2     3   ar
    17     3     4   ar
    18     4     7    1
    19     7     8    1
    20     7     9    1
    21     7    10    1
    22    10    11    1
    23    10    21    1
    24    21    22    1
    25    22    23   ar
    26    23    24   ar
    27    24    25   ar
    28    25    26   ar
    29    10    13    1
    30    13    14   ar
    31    14    15   ar
    32    15    16   ar
    33    16    17    1
    34    16    18   ar
    35    18    19   ar
    36    19    20    1
    37     4     5   ar
    38     5     6   ar
    39    32    33   ar
    40    33    34   ar
    41    40    41   ar
    42    41    42   ar
    43    42    37   ar
    44    34    29   ar
    45     6     1   ar
    46    26    22   ar
    47    19    13   ar
    48    11    12    1
@<TRIPOS>MOLECULE
*****
 44 48 0 0 0
SMALL
GASTEIGER

@<TRIPOS>ATOM
      1 C          61.4631   87.4848    9.4287 C.ar    1  UNL1        0.0611
      2 C          62.0336   88.0763   10.6836 C.ar    1  UNL1        0.0112
      3 C          62.5337   87.1783   11.7761 C.ar    1  UNL1        0.0208
      4 C          62.4632   85.6887   11.6136 C.ar    1  UNL1        0.1218
      5 N          61.8927   85.0973   10.3588 N.ar    1  UNL1       -0.2421
      6 C          61.3926   85.9953    9.2663 C.ar    1  UNL1        0.1068
      7 C          62.9632   84.7906   12.7061 C.3     1  UNL1        0.3254
      8 F          61.6645   85.3206   13.2378 F       1  UNL1       -0.1949
      9 F          64.1769   84.4684   11.8857 F       1  UNL1       -0.1949
     10 C          63.4633   83.8926   13.7985 C.3     1  UNL1        0.1932
     11 O          63.9633   82.9945   14.8910 O.3     1  UNL1       -0.3755
     12 H          64.1073   82.1032   14.5363 H       1  UNL1        0.2110
     13 C          63.4040   85.0370   14.7664 C.ar    1  UNL1        0.0367
     14 C          64.2173   86.2725   14.5177 C.ar    1  UNL1        0.0013
     15 C          64.1580   87.4169   15.4856 C.ar    1  UNL1        0.0113
     16 C          63.2854   87.3258   16.7022 C.ar    1  UNL1        0.0599
     17 CL         63.2261   88.4702   17.6702 Cl      1  UNL1       -0.0822
     18 C          62.4721   86.0902   16.9510 C.ar    1  UNL1        0.0408
     19 C          62.5314   84.9458   15.9831 C.ar    1  UNL1        0.1394
     20 F          61.7180   83.7102   16.2318 F       1  UNL1       -0.2044
     21 C          63.5226   82.7482   12.8306 C.3     1  UNL1        0.1679
     22 N          62.7360   81.4991   13.0970 N.ar    1  UNL1       -0.2078
     23 C          61.4974   81.3995   13.9371 C.ar    1  UNL1        0.2216
     24 N          61.0458   79.9690   13.9293 N.ar    1  UNL1       -0.1048
     25 N          62.0052   79.1846   13.0843 N.ar    1  UNL1       -0.0226
     26 N          63.0498   80.1302   12.5698 N.ar    1  UNL1       -0.0428
     27 C          60.4630   89.2809    7.2438 C.1     1  UNL1       -0.0597
     28 C          60.9630   88.3829    8.3363 C.1     1  UNL1       -0.0582
     29 C          58.9628   91.9751    3.9665 C.ar    1  UNL1        0.1391
     30 C          60.4349   91.7330    4.1235 C.ar    1  UNL1        0.0375
     31 C          60.9349   90.8349    5.2159 C.ar    1  UNL1        0.0114
     32 C          59.9629   90.1790    6.1514 C.ar    1  UNL1        0.0422
     33 C          58.4910   90.4211    5.9944 C.ar    1  UNL1        0.0114
     34 C          57.9909   91.3192    4.9020 C.ar    1  UNL1        0.0375
     35 O          58.4628   92.8732    2.8741 O.3     1  UNL1       -0.4706
     36 C          59.0180   92.7470    1.4864 C.3     1  UNL1        0.2320
     37 C          63.0054   94.5758    0.4834 C.ar    1  UNL1        0.0684
     38 C          62.6777   93.1886    0.0161 C.ar    1  UNL1        0.0101
     39 C          61.3486   92.5790    0.3504 C.ar    1  UNL1       -0.0000
     40 C          60.3472   93.3566    1.1520 C.ar    1  UNL1        0.0212
     41 C          60.6749   94.7437    1.6193 C.ar    1  UNL1       -0.0000
     42 C          62.0041   95.3533    1.2850 C.ar    1  UNL1        0.0101
     43 N          65.6637   95.7950   -0.1853 N.1     1  UNL1       -0.1908
     44 C          64.3346   95.1854    0.1490 C.1     1  UNL1        0.1004
@<TRIPOS>BOND
     1    43    44    3
     2    44    37    1
     3    37    38   ar
     4    38    39   ar
     5    39    40   ar
     6    40    36    1
     7    36    35    1
     8    35    29    1
     9    29    30   ar
    10    30    31   ar
    11    31    32   ar
    12    32    27    1
    13    27    28    3
    14    28     1    1
    15     1     2   ar
    16     2     3   ar
    17     3     4   ar
    18     4     7    1
    19     7     8    1
    20     7     9    1
    21     7    10    1
    22    10    11    1
    23    10    21    1
    24    21    22    1
    25    22    23   ar
    26    23    24   ar
    27    24    25   ar
    28    25    26   ar
    29    10    13    1
    30    13    14   ar
    31    14    15   ar
    32    15    16   ar
    33    16    17    1
    34    16    18   ar
    35    18    19   ar
    36    19    20    1
    37     4     5   ar
    38     5     6   ar
    39    32    33   ar
    40    33    34   ar
    41    40    41   ar
    42    41    42   ar
    43    42    37   ar
    44    34    29   ar
    45     6     1   ar
    46    26    22   ar
    47    19    13   ar
    48    11    12    1
@<TRIPOS>MOLECULE
*****
 44 48 0 0 0
SMALL
GASTEIGER

@<TRIPOS>ATOM
      1 C          60.3903   91.7206    4.0991 C.ar    1  UNL1        0.0611
      2 C          59.0753   92.2695    3.6304 C.ar    1  UNL1        0.0112
      3 C          59.0130   93.1110    2.3903 C.ar    1  UNL1        0.0208
      4 C          60.2657   93.4036    1.6188 C.ar    1  UNL1        0.1218
      5 N          61.5807   92.8547    2.0875 N.ar    1  UNL1       -0.2421
      6 C          61.6429   92.0132    3.3276 C.ar    1  UNL1        0.1068
      7 C          60.2035   94.2451    0.3786 C.3     1  UNL1        0.3254
      8 F          60.7347   92.9275   -0.1030 F       1  UNL1       -0.1949
      9 F          59.6715   95.3931    1.1843 F       1  UNL1       -0.1949
     10 C          60.1412   95.0866   -0.8616 C.3     1  UNL1        0.1932
     11 O          60.0789   95.9280   -2.1017 O.3     1  UNL1       -0.3755
     12 H          60.7109   96.6601   -2.0278 H       1  UNL1        0.2110
     13 C          59.0825   94.1833   -1.4213 C.ar    1  UNL1        0.0367
     14 C          57.7121   94.1662   -0.8117 C.ar    1  UNL1        0.0013
     15 C          56.6535   93.2629   -1.3715 C.ar    1  UNL1        0.0113
     16 C          56.9652   92.3767   -2.5408 C.ar    1  UNL1        0.0599
     17 CL         55.9065   91.4734   -3.1005 Cl      1  UNL1       -0.0822
     18 C          58.3356   92.3938   -3.1504 C.ar    1  UNL1        0.0408
     19 C          59.3943   93.2970   -2.5906 C.ar    1  UNL1        0.1394
     20 F          60.7648   93.3141   -3.2003 F       1  UNL1       -0.2044
     21 C          61.1999   95.9898   -0.3018 C.3     1  UNL1        0.1679
     22 N          62.6440   95.7414   -0.6223 N.ar    1  UNL1       -0.2078
     23 C          63.7383   95.4950    0.3734 C.ar    1  UNL1        0.2216
     24 N          65.0181   95.2970   -0.3837 N.ar    1  UNL1       -0.1048
     25 N          64.7146   95.4210   -1.8474 N.ar    1  UNL1       -0.0226
     26 N          63.2473   95.6957   -1.9949 N.ar    1  UNL1       -0.0428
     27 C          60.5149   90.0376    6.5795 C.1     1  UNL1       -0.0597
     28 C          60.4526   90.8791    5.3393 C.1     1  UNL1       -0.0582
     29 C          60.7017   87.5132   10.3000 C.ar    1  UNL1        0.1391
     30 C          61.2426   88.9122   10.3150 C.ar    1  UNL1        0.0375
     31 C          61.1803   89.7537    9.0748 C.ar    1  UNL1        0.0114
     32 C          60.5771   89.1961    7.8196 C.ar    1  UNL1        0.0422
     33 C          60.0363   87.7972    7.8047 C.ar    1  UNL1        0.0114
     34 C          60.0985   86.9557    9.0448 C.ar    1  UNL1        0.0375
     35 O          60.7640   86.6717   11.5401 O.3     1  UNL1       -0.4706
     36 C          62.0910   86.2223   12.0757 C.3     1  UNL1        0.2320
     37 C          62.6677   81.9492   13.3633 C.ar    1  UNL1        0.0684
     38 C          62.6920   82.3032   11.9059 C.ar    1  UNL1        0.0101
     39 C          62.4998   83.7275   11.4767 C.ar    1  UNL1       -0.0000
     40 C          62.2833   84.7980   12.5049 C.ar    1  UNL1        0.0212
     41 C          62.2590   84.4440   13.9623 C.ar    1  UNL1       -0.0000
     42 C          62.4512   83.0196   14.3915 C.ar    1  UNL1        0.0101
     43 N          63.0521   79.1004   14.2216 N.1     1  UNL1       -0.1908
     44 C          62.8599   80.5248   13.7925 C.1     1  UNL1        0.1004
@<TRIPOS>BOND
     1    43    44    3
     2    44    37    1
     3    37    38   ar
     4    38    39   ar
     5    39    40   ar
     6    40    36    1
     7    36    35    1
     8    35    29    1
     9    29    30   ar
    10    30    31   ar
    11    31    32   ar
    12    32    27    1
    13    27    28    3
    14    28     1    1
    15     1     2   ar
    16     2     3   ar
    17     3     4   ar
    18     4     7    1
    19     7     8    1
    20     7     9    1
    21     7    10    1
    22    10    11    1
    23    10    21    1
    24    21    22    1
    25    22    23   ar
    26    23    24   ar
    27    24    25   ar
    28    25    26   ar
    29    10    13    1
    30    13    14   ar
    31    14    15   ar
    32    15    16   ar
    33    16    17    1
    34    16    18   ar
    35    18    19   ar
    36    19    20    1
    37     4     5   ar
    38     5     6   ar
    39    32    33   ar
    40    33    34   ar
    41    40    41   ar
    42    41    42   ar
    43    42    37   ar
    44    34    29   ar
    45     6     1   ar
    46    26    22   ar
    47    19    13   ar
    48    11    12    1
