@<TRIPOS>MOLECULE
*****
 37 40 0 0 0
SMALL
GASTEIGER

@<TRIPOS>ATOM
      1 C          61.7995   89.8502   10.5273 C.3     1  UNL1        0.0528
      2 C          62.9433   86.3834   11.8459 C.ar    1  UNL1        0.1932
      3 O          63.4663   87.2893   12.9209 O.2     1  UNL1       -0.3524
      4 N          63.1015   88.6983   12.5578 N.ar    1  UNL1       -0.0816
      5 C          62.3530   88.6631   11.2584 C.ar    1  UNL1        0.0967
      6 C          62.2552   87.2324   10.8184 C.ar    1  UNL1        0.0329
      7 C          63.2124   82.5648   12.4875 C.ar    1  UNL1        0.1545
      8 C          63.0250   83.9671   12.9861 C.ar    1  UNL1        0.0612
      9 C          63.0836   84.8905   11.8054 C.ar    1  UNL1        0.1593
     10 N          63.3072   84.0590   10.5772 N.ar    1  UNL1       -0.0742
     11 O          63.3868   82.6216   10.9987 O.2     1  UNL1       -0.3577
     12 C          63.2234   81.3237   13.3298 C.3     1  UNL1        0.0673
     13 C          61.5586   81.8798   14.5211 C.3     1  UNL1        0.0004
     14 C          61.9307   80.6691   13.7176 C.3     1  UNL1        0.0072
     15 C          62.3027   79.4583   12.9140 C.3     1  UNL1        0.0004
     16 C          60.6380   80.0145   14.1054 C.3     1  UNL1        0.0004
     17 C          61.5867   86.7376    9.5701 C.3     1  UNL1        0.0268
     18 C          60.3529   86.5835    8.7310 C.3     1  UNL1        0.0048
     19 C          61.6625   86.0349    8.2471 C.3     1  UNL1        0.0048
     20 C          60.3200   89.9777   10.3156 C.3     1  UNL1        0.0124
     21 C          59.4474   90.5041   11.4164 C.3     1  UNL1        0.0421
     22 C          59.1562   89.6512   12.6154 C.2     1  UNL1        0.0503
     23 O          60.1488   89.5703   13.7372 O.co2   1  UNL1       -0.5492
     24 O          57.8724   88.8793   12.6928 O.co2   1  UNL1       -0.5492
     25 C          62.7254   90.9098   10.0080 C.3     1  UNL1        0.0914
     26 C          63.8240   91.4396   10.8813 C.2     1  UNL1        0.2265
     27 O          65.0939   91.9465   10.2645 O.2     1  UNL1       -0.2748
     28 N          63.6526   91.4624   12.3713 N.am    1  UNL1       -0.2832
     29 H          62.8192   91.1297   12.7761 H       1  UNL1        0.1549
     30 C          64.7512   91.9922   13.2446 C.ar    1  UNL1        0.0610
     31 C          65.6902   93.0367   12.7180 C.ar    1  UNL1        0.0164
     32 C          66.7887   93.5664   13.5913 C.ar    1  UNL1        0.0127
     33 C          66.9482   93.0516   14.9911 C.ar    1  UNL1        0.0586
     34 CL         68.0468   93.5814   15.8644 Cl      1  UNL1       -0.0822
     35 C          66.0093   92.0071   15.5177 C.ar    1  UNL1        0.0240
     36 C          64.9108   91.4774   14.6444 C.ar    1  UNL1        0.0719
     37 CL         63.9717   90.4328   15.1709 Cl      1  UNL1       -0.0809
@<TRIPOS>UNITY_ATOM_ATTR
24 1
charge -1
@<TRIPOS>BOND
     1    13    14    1
     2    14    15    1
     3    14    16    1
     4    14    12    1
     5    12     7    1
     6     7     8   ar
     7     8     9   ar
     8     9     2    1
     9     2     3   ar
    10     3     4   ar
    11     4     5   ar
    12     5     1    1
    13     1    20    1
    14    20    21    1
    15    21    22    1
    16    22    23   ar
    17    22    24   ar
    18     1    25    1
    19    25    26    1
    20    26    27    2
    21    26    28   am
    22    28    30    1
    23    30    31   ar
    24    31    32   ar
    25    32    33   ar
    26    33    34    1
    27    33    35   ar
    28    35    36   ar
    29    36    37    1
    30     5     6   ar
    31     6    17    1
    32    17    18    1
    33    18    19    1
    34     9    10   ar
    35    10    11   ar
    36    11     7   ar
    37     6     2   ar
    38    19    17    1
    39    36    30   ar
    40    28    29    1
@<TRIPOS>MOLECULE
*****
 37 40 0 0 0
SMALL
GASTEIGER

@<TRIPOS>ATOM
      1 C          61.4717   89.7683   10.4801 C.3     1  UNL1        0.0528
      2 C          62.2807   85.9890   10.1222 C.ar    1  UNL1        0.1932
      3 O          61.4839   86.2342    8.8752 O.2     1  UNL1       -0.3524
      4 N          61.0839   87.6798    8.8575 N.ar    1  UNL1       -0.0816
      5 C          61.6334   88.3280   10.0936 C.ar    1  UNL1        0.0967
      6 C          62.3731   87.2831   10.8752 C.ar    1  UNL1        0.0329
      7 C          63.4611   82.7225   11.8547 C.ar    1  UNL1        0.1545
      8 C          62.6806   84.0034   11.8664 C.ar    1  UNL1        0.0612
      9 C          62.8799   84.6797   10.5425 C.ar    1  UNL1        0.1593
     10 N          63.7835   83.8168    9.7124 N.ar    1  UNL1       -0.0742
     11 O          64.1428   82.6071   10.5235 O.2     1  UNL1       -0.3577
     12 C          63.5452   81.7310   12.9772 C.3     1  UNL1        0.0673
     13 C          62.3891   79.9839   12.6438 C.3     1  UNL1        0.0004
     14 C          62.2908   81.1604   13.5692 C.3     1  UNL1        0.0072
     15 C          62.1923   82.3367   14.4947 C.3     1  UNL1        0.0004
     16 C          61.0363   80.5896   14.1613 C.3     1  UNL1        0.0004
     17 C          63.0809   87.4949   12.1806 C.3     1  UNL1        0.0268
     18 C          63.7260   86.9360   13.4142 C.3     1  UNL1        0.0048
     19 C          63.6619   88.4204   13.2081 C.3     1  UNL1        0.0048
     20 C          60.1776   90.2460   11.0692 C.3     1  UNL1        0.0124
     21 C          59.1286   89.2548   11.4783 C.3     1  UNL1        0.0421
     22 C          58.7548   89.1120   12.9239 C.2     1  UNL1        0.0503
     23 O          59.7535   89.4430   13.9931 O.co2   1  UNL1       -0.5492
     24 O          57.3823   88.6383   13.3003 O.co2   1  UNL1       -0.5492
     25 C          62.6041   90.7309   10.2775 C.3     1  UNL1        0.0914
     26 C          63.3922   91.2206   11.4562 C.2     1  UNL1        0.2265
     27 O          62.7895   91.1828   12.8293 O.2     1  UNL1       -0.2748
     28 N          64.7829   91.7479   11.2618 N.am    1  UNL1       -0.2832
     29 H          65.1784   91.7727   10.3606 H       1  UNL1        0.1549
     30 C          65.5710   92.2376   12.4404 C.ar    1  UNL1        0.0610
     31 C          65.8650   91.3114   13.5831 C.ar    1  UNL1        0.0164
     32 C          66.6531   91.8011   14.7617 C.ar    1  UNL1        0.0127
     33 C          67.1471   93.2169   14.7976 C.ar    1  UNL1        0.0586
     34 CL         67.9352   93.7066   15.9763 Cl      1  UNL1       -0.0822
     35 C          66.8531   94.1431   13.6550 C.ar    1  UNL1        0.0240
     36 C          66.0651   93.6534   12.4764 C.ar    1  UNL1        0.0719
     37 CL         65.7710   94.5796   11.3336 Cl      1  UNL1       -0.0809
@<TRIPOS>UNITY_ATOM_ATTR
24 1
charge -1
@<TRIPOS>BOND
     1    13    14    1
     2    14    15    1
     3    14    16    1
     4    14    12    1
     5    12     7    1
     6     7     8   ar
     7     8     9   ar
     8     9     2    1
     9     2     3   ar
    10     3     4   ar
    11     4     5   ar
    12     5     1    1
    13     1    20    1
    14    20    21    1
    15    21    22    1
    16    22    23   ar
    17    22    24   ar
    18     1    25    1
    19    25    26    1
    20    26    27    2
    21    26    28   am
    22    28    30    1
    23    30    31   ar
    24    31    32   ar
    25    32    33   ar
    26    33    34    1
    27    33    35   ar
    28    35    36   ar
    29    36    37    1
    30     5     6   ar
    31     6    17    1
    32    17    18    1
    33    18    19    1
    34     9    10   ar
    35    10    11   ar
    36    11     7   ar
    37     6     2   ar
    38    19    17    1
    39    36    30   ar
    40    28    29    1
@<TRIPOS>MOLECULE
*****
 37 40 0 0 0
SMALL
GASTEIGER

@<TRIPOS>ATOM
      1 C          61.9448   88.6215   10.9012 C.3     1  UNL1        0.0528
      2 C          64.2600   91.6585   11.5959 C.ar    1  UNL1        0.1932
      3 O          63.8033   91.9559   10.1984 O.2     1  UNL1       -0.3524
      4 N          62.8805   90.8544    9.7681 N.ar    1  UNL1       -0.0816
      5 C          62.7668   89.8763   10.8996 C.ar    1  UNL1        0.0967
      6 C          63.6193   90.3733   12.0293 C.ar    1  UNL1        0.0329
      7 C          66.5131   93.3448   14.2689 C.ar    1  UNL1        0.1545
      8 C          65.5534   92.2693   13.8540 C.ar    1  UNL1        0.0612
      9 C          65.1934   92.4988   12.4161 C.ar    1  UNL1        0.1593
     10 N          65.9306   93.7162   11.9421 N.ar    1  UNL1       -0.0742
     11 O          66.7463   94.2391   13.0873 O.2     1  UNL1       -0.3577
     12 C          67.1312   93.4991   15.6269 C.3     1  UNL1        0.0673
     13 C          69.0095   94.3746   16.0805 C.3     1  UNL1        0.0004
     14 C          68.5116   92.9729   15.8867 C.3     1  UNL1        0.0072
     15 C          68.0139   91.5712   15.6928 C.3     1  UNL1        0.0004
     16 C          69.8921   92.4468   16.1465 C.3     1  UNL1        0.0004
     17 C          63.7997   89.7027   13.3589 C.3     1  UNL1        0.0268
     18 C          63.6539   89.7178   14.8518 C.3     1  UNL1        0.0048
     19 C          64.2577   88.5264   14.1691 C.3     1  UNL1        0.0048
     20 C          60.7184   88.5294   11.7600 C.3     1  UNL1        0.0124
     21 C          60.0146   89.7792   12.1991 C.3     1  UNL1        0.0421
     22 C          59.3628   90.6693   11.1828 C.2     1  UNL1        0.0503
     23 O          59.5805   90.4220    9.7195 O.co2   1  UNL1       -0.5492
     24 O          58.4932   91.8068   11.6300 O.co2   1  UNL1       -0.5492
     25 C          62.3492   87.4589   10.0441 C.3     1  UNL1        0.0914
     26 C          62.2008   86.0586   10.5610 C.2     1  UNL1        0.2265
     27 O          61.1717   85.1443    9.9651 O.2     1  UNL1       -0.2748
     28 N          63.0815   85.5725   11.6737 N.am    1  UNL1       -0.2832
     29 H          63.7569   86.1726   12.0647 H       1  UNL1        0.1549
     30 C          62.9331   84.1722   12.1905 C.ar    1  UNL1        0.0610
     31 C          62.3416   83.9325   13.5480 C.ar    1  UNL1        0.0164
     32 C          62.1933   82.5322   14.0648 C.ar    1  UNL1        0.0127
     33 C          62.6363   81.3716   13.2241 C.ar    1  UNL1        0.0586
     34 CL         62.4879   79.9713   13.7410 Cl      1  UNL1       -0.0822
     35 C          63.2278   81.6113   11.8667 C.ar    1  UNL1        0.0240
     36 C          63.3762   83.0116   11.3499 C.ar    1  UNL1        0.0719
     37 CL         63.9676   83.2513    9.9924 Cl      1  UNL1       -0.0809
@<TRIPOS>UNITY_ATOM_ATTR
24 1
charge -1
@<TRIPOS>BOND
     1    13    14    1
     2    14    15    1
     3    14    16    1
     4    14    12    1
     5    12     7    1
     6     7     8   ar
     7     8     9   ar
     8     9     2    1
     9     2     3   ar
    10     3     4   ar
    11     4     5   ar
    12     5     1    1
    13     1    20    1
    14    20    21    1
    15    21    22    1
    16    22    23   ar
    17    22    24   ar
    18     1    25    1
    19    25    26    1
    20    26    27    2
    21    26    28   am
    22    28    30    1
    23    30    31   ar
    24    31    32   ar
    25    32    33   ar
    26    33    34    1
    27    33    35   ar
    28    35    36   ar
    29    36    37    1
    30     5     6   ar
    31     6    17    1
    32    17    18    1
    33    18    19    1
    34     9    10   ar
    35    10    11   ar
    36    11     7   ar
    37     6     2   ar
    38    19    17    1
    39    36    30   ar
    40    28    29    1
@<TRIPOS>MOLECULE
*****
 37 40 0 0 0
SMALL
GASTEIGER

@<TRIPOS>ATOM
      1 C          64.5851   90.6502   14.3216 C.3     1  UNL1        0.0528
      2 C          63.0719   87.8273   12.1290 C.ar    1  UNL1        0.1932
      3 O          62.7100   89.0425   11.3274 O.2     1  UNL1       -0.3524
      4 N          63.2328   90.2478   12.0512 N.ar    1  UNL1       -0.0816
      5 C          63.9178   89.7776   13.3001 C.ar    1  UNL1        0.0967
      6 C          63.8184   88.2817   13.3481 C.ar    1  UNL1        0.0329
      7 C          62.8125   83.9842   11.6511 C.ar    1  UNL1        0.1545
      8 C          63.4766   85.1879   12.2511 C.ar    1  UNL1        0.0612
      9 C          62.7448   86.4072   11.7737 C.ar    1  UNL1        0.1593
     10 N          61.6284   85.9570   10.8787 N.ar    1  UNL1       -0.0742
     11 O          61.6702   84.4594   10.8030 O.2     1  UNL1       -0.3577
     12 C          63.2193   82.5559   11.8622 C.3     1  UNL1        0.0673
     13 C          62.5622   80.5399   11.7984 C.3     1  UNL1        0.0004
     14 C          62.4147   81.6734   12.7698 C.3     1  UNL1        0.0072
     15 C          62.2672   82.8067   13.7413 C.3     1  UNL1        0.0004
     16 C          61.6102   80.7907   13.6774 C.3     1  UNL1        0.0004
     17 C          64.3687   87.3956   14.4261 C.3     1  UNL1        0.0268
     18 C          65.5411   86.8468   15.1841 C.3     1  UNL1        0.0048
     19 C          64.1498   86.4098   15.5352 C.3     1  UNL1        0.0048
     20 C          63.7908   91.2084   15.4650 C.3     1  UNL1        0.0124
     21 C          63.6636   90.4296   16.7407 C.3     1  UNL1        0.0421
     22 C          62.7221   89.2645   16.8175 C.2     1  UNL1        0.0503
     23 O          63.0266   88.1129   17.7292 O.co2   1  UNL1       -0.5492
     24 O          61.4761   89.2508   15.9825 O.co2   1  UNL1       -0.5492
     25 C          66.0467   90.9645   14.1997 C.3     1  UNL1        0.0914
     26 C          66.5020   92.0794   13.3054 C.2     1  UNL1        0.2265
     27 O          67.6016   92.9971   13.7514 O.2     1  UNL1       -0.2748
     28 N          65.8579   92.2767   11.9652 N.am    1  UNL1       -0.2832
     29 H          65.1362   91.6743   11.6725 H       1  UNL1        0.1549
     30 C          66.3132   93.3916   11.0710 C.ar    1  UNL1        0.0610
     31 C          65.7177   94.7606   11.2165 C.ar    1  UNL1        0.0164
     32 C          66.1731   95.8754   10.3223 C.ar    1  UNL1        0.0127
     33 C          67.2240   95.6213    9.2825 C.ar    1  UNL1        0.0586
     34 CL         67.6793   96.7363    8.3883 Cl      1  UNL1       -0.0822
     35 C          67.8195   94.2523    9.1370 C.ar    1  UNL1        0.0240
     36 C          67.3641   93.1375   10.0312 C.ar    1  UNL1        0.0719
     37 CL         67.9596   91.7684    9.8858 Cl      1  UNL1       -0.0809
@<TRIPOS>UNITY_ATOM_ATTR
24 1
charge -1
@<TRIPOS>BOND
     1    13    14    1
     2    14    15    1
     3    14    16    1
     4    14    12    1
     5    12     7    1
     6     7     8   ar
     7     8     9   ar
     8     9     2    1
     9     2     3   ar
    10     3     4   ar
    11     4     5   ar
    12     5     1    1
    13     1    20    1
    14    20    21    1
    15    21    22    1
    16    22    23   ar
    17    22    24   ar
    18     1    25    1
    19    25    26    1
    20    26    27    2
    21    26    28   am
    22    28    30    1
    23    30    31   ar
    24    31    32   ar
    25    32    33   ar
    26    33    34    1
    27    33    35   ar
    28    35    36   ar
    29    36    37    1
    30     5     6   ar
    31     6    17    1
    32    17    18    1
    33    18    19    1
    34     9    10   ar
    35    10    11   ar
    36    11     7   ar
    37     6     2   ar
    38    19    17    1
    39    36    30   ar
    40    28    29    1
@<TRIPOS>MOLECULE
*****
 37 40 0 0 0
SMALL
GASTEIGER

@<TRIPOS>ATOM
      1 C          62.2579   86.8913   10.5488 C.3     1  UNL1        0.0528
      2 C          63.6563   88.7779   13.6393 C.ar    1  UNL1        0.1932
      3 O          63.7671   87.3530   14.0949 O.2     1  UNL1       -0.3524
      4 N          63.2567   86.4729   12.9927 N.ar    1  UNL1       -0.0816
      5 C          62.8305   87.3538   11.8558 C.ar    1  UNL1        0.0967
      6 C          63.0775   88.7783   12.2554 C.ar    1  UNL1        0.0329
      7 C          65.3107   91.8922   15.2607 C.ar    1  UNL1        0.1545
      8 C          65.3299   90.7634   14.2730 C.ar    1  UNL1        0.0612
      9 C          64.0544   89.9895   14.4288 C.ar    1  UNL1        0.1593
     10 N          63.2469   90.6400   15.5127 N.ar    1  UNL1       -0.0742
     11 O          64.0234   91.8160   16.0269 O.2     1  UNL1       -0.3577
     12 C          66.3895   92.9173   15.4491 C.3     1  UNL1        0.0673
     13 C          67.3014   93.0603   13.5391 C.3     1  UNL1        0.0004
     14 C          67.7661   92.6650   14.9095 C.3     1  UNL1        0.0072
     15 C          68.2309   92.2698   16.2798 C.3     1  UNL1        0.0004
     16 C          69.1428   92.4128   14.3698 C.3     1  UNL1        0.0004
     17 C          62.7952   89.9905   11.4182 C.3     1  UNL1        0.0268
     18 C          61.8142   90.9158   10.7613 C.3     1  UNL1        0.0048
     19 C          63.2871   91.1647   10.6251 C.3     1  UNL1        0.0048
     20 C          61.0024   87.5164   10.0169 C.3     1  UNL1        0.0124
     21 C          60.7624   87.5751    8.5373 C.3     1  UNL1        0.0421
     22 C          59.7824   86.6362    7.8987 C.2     1  UNL1        0.0503
     23 O          58.3105   86.9080    7.9961 O.co2   1  UNL1       -0.5492
     24 O          60.2743   85.4253    7.1626 O.co2   1  UNL1       -0.5492
     25 C          62.9407   85.8036    9.7738 C.3     1  UNL1        0.0914
     26 C          63.0293   84.4189   10.3435 C.2     1  UNL1        0.2265
     27 O          63.8243   83.3645    9.6319 O.2     1  UNL1       -0.2748
     28 N          62.3230   84.0885   11.6249 N.am    1  UNL1       -0.2832
     29 H          61.8012   84.7805   12.0919 H       1  UNL1        0.1549
     30 C          62.4116   82.7037   12.1947 C.ar    1  UNL1        0.0610
     31 C          62.6253   81.5305   11.2848 C.ar    1  UNL1        0.0164
     32 C          62.7139   80.1458   11.8546 C.ar    1  UNL1        0.0127
     33 C          62.5888   79.9343   13.3343 C.ar    1  UNL1        0.0586
     34 CL         62.6775   78.5495   13.9041 Cl      1  UNL1       -0.0822
     35 C          62.3752   81.1074   14.2442 C.ar    1  UNL1        0.0240
     36 C          62.2865   82.4921   13.6744 C.ar    1  UNL1        0.0719
     37 CL         62.0728   83.6654   14.5844 Cl      1  UNL1       -0.0809
@<TRIPOS>UNITY_ATOM_ATTR
24 1
charge -1
@<TRIPOS>BOND
     1    13    14    1
     2    14    15    1
     3    14    16    1
     4    14    12    1
     5    12     7    1
     6     7     8   ar
     7     8     9   ar
     8     9     2    1
     9     2     3   ar
    10     3     4   ar
    11     4     5   ar
    12     5     1    1
    13     1    20    1
    14    20    21    1
    15    21    22    1
    16    22    23   ar
    17    22    24   ar
    18     1    25    1
    19    25    26    1
    20    26    27    2
    21    26    28   am
    22    28    30    1
    23    30    31   ar
    24    31    32   ar
    25    32    33   ar
    26    33    34    1
    27    33    35   ar
    28    35    36   ar
    29    36    37    1
    30     5     6   ar
    31     6    17    1
    32    17    18    1
    33    18    19    1
    34     9    10   ar
    35    10    11   ar
    36    11     7   ar
    37     6     2   ar
    38    19    17    1
    39    36    30   ar
    40    28    29    1
@<TRIPOS>MOLECULE
*****
 37 40 0 0 0
SMALL
GASTEIGER

@<TRIPOS>ATOM
      1 C          61.9150   88.1690   11.3149 C.3     1  UNL1        0.0528
      2 C          64.0910   91.3831   11.3266 C.ar    1  UNL1        0.1932
      3 O          63.5498   91.4046    9.9278 O.2     1  UNL1       -0.3524
      4 N          62.6688   90.2032    9.7532 N.ar    1  UNL1       -0.0816
      5 C          62.6655   89.4392   11.0440 C.ar    1  UNL1        0.0967
      6 C          63.5445   90.1685   12.0164 C.ar    1  UNL1        0.0329
      7 C          66.4386   93.5780   13.5030 C.ar    1  UNL1        0.1545
      8 C          65.5576   92.3765   13.3284 C.ar    1  UNL1        0.0612
      9 C          65.0163   92.3981   11.9297 C.ar    1  UNL1        0.1593
     10 N          65.5626   93.6128   11.2398 N.ar    1  UNL1       -0.0742
     11 O          66.4417   94.3421   12.2122 O.2     1  UNL1       -0.3577
     12 C          67.1853   93.9500   14.7496 C.3     1  UNL1        0.0673
     13 C          66.5444   92.7398   16.3698 C.3     1  UNL1        0.0004
     14 C          67.8187   92.8821   15.5912 C.3     1  UNL1        0.0072
     15 C          69.0930   93.0244   14.8128 C.3     1  UNL1        0.0004
     16 C          68.4521   91.8142   16.4329 C.3     1  UNL1        0.0004
     17 C          63.8273   89.7555   13.4305 C.3     1  UNL1        0.0268
     18 C          63.5415   89.8687   14.8987 C.3     1  UNL1        0.0048
     19 C          64.6028   88.9273   14.4115 C.3     1  UNL1        0.0048
     20 C          60.5506   87.9640   10.7265 C.3     1  UNL1        0.0124
     21 C          60.3122   88.2391    9.2713 C.3     1  UNL1        0.0421
     22 C          59.8443   87.1379    8.3667 C.2     1  UNL1        0.0503
     23 O          58.3785   86.9497    8.1102 O.co2   1  UNL1       -0.5492
     24 O          60.8424   86.2248    7.7185 O.co2   1  UNL1       -0.5492
     25 C          62.5290   87.1038   12.1741 C.3     1  UNL1        0.0914
     26 C          62.4182   85.6620   11.7752 C.2     1  UNL1        0.2265
     27 O          61.4973   85.2607   10.6613 O.2     1  UNL1       -0.2748
     28 N          63.2282   84.6216   12.4903 N.am    1  UNL1       -0.2832
     29 H          63.8326   84.8850   13.2215 H       1  UNL1        0.1549
     30 C          63.1174   83.1798   12.0914 C.ar    1  UNL1        0.0610
     31 C          63.5685   82.7416   10.7297 C.ar    1  UNL1        0.0164
     32 C          63.4577   81.2999   10.3309 C.ar    1  UNL1        0.0127
     33 C          62.8958   80.2964   11.2938 C.ar    1  UNL1        0.0586
     34 CL         62.7850   78.8546   10.8949 Cl      1  UNL1       -0.0822
     35 C          62.4447   80.7346   12.6555 C.ar    1  UNL1        0.0240
     36 C          62.5555   82.1763   13.0543 C.ar    1  UNL1        0.0719
     37 CL         62.1043   82.6146   14.4162 Cl      1  UNL1       -0.0809
@<TRIPOS>UNITY_ATOM_ATTR
24 1
charge -1
@<TRIPOS>BOND
     1    13    14    1
     2    14    15    1
     3    14    16    1
     4    14    12    1
     5    12     7    1
     6     7     8   ar
     7     8     9   ar
     8     9     2    1
     9     2     3   ar
    10     3     4   ar
    11     4     5   ar
    12     5     1    1
    13     1    20    1
    14    20    21    1
    15    21    22    1
    16    22    23   ar
    17    22    24   ar
    18     1    25    1
    19    25    26    1
    20    26    27    2
    21    26    28   am
    22    28    30    1
    23    30    31   ar
    24    31    32   ar
    25    32    33   ar
    26    33    34    1
    27    33    35   ar
    28    35    36   ar
    29    36    37    1
    30     5     6   ar
    31     6    17    1
    32    17    18    1
    33    18    19    1
    34     9    10   ar
    35    10    11   ar
    36    11     7   ar
    37     6     2   ar
    38    19    17    1
    39    36    30   ar
    40    28    29    1
@<TRIPOS>MOLECULE
*****
 37 40 0 0 0
SMALL
GASTEIGER

@<TRIPOS>ATOM
      1 C          62.2826   88.2406   10.4349 C.3     1  UNL1        0.0528
      2 C          63.8724   89.8420   13.5930 C.ar    1  UNL1        0.1932
      3 O          63.4763   88.4945   14.1195 O.2     1  UNL1       -0.3524
      4 N          62.8325   87.7306   13.0006 N.ar    1  UNL1       -0.0816
      5 C          62.8308   88.6060   11.7825 C.ar    1  UNL1        0.0967
      6 C          63.4735   89.9109   12.1487 C.ar    1  UNL1        0.0329
      7 C          66.1451   92.6194   15.0718 C.ar    1  UNL1        0.1545
      8 C          65.8453   91.5947   14.0181 C.ar    1  UNL1        0.0612
      9 C          64.5487   90.9297   14.3738 C.ar    1  UNL1        0.1593
     10 N          64.0470   91.5434   15.6473 N.ar    1  UNL1       -0.0742
     11 O          65.0337   92.5877   16.0787 O.2     1  UNL1       -0.3577
     12 C          67.3455   93.5180   15.1116 C.3     1  UNL1        0.0673
     13 C          68.2122   91.6294   15.5383 C.3     1  UNL1        0.0004
     14 C          68.6059   93.0564   15.7810 C.3     1  UNL1        0.0072
     15 C          68.9997   94.4832   16.0237 C.3     1  UNL1        0.0004
     16 C          69.8663   92.5946   16.4504 C.3     1  UNL1        0.0004
     17 C          63.6808   91.0796   11.2315 C.3     1  UNL1        0.0268
     18 C          63.3054   91.8449    9.9972 C.3     1  UNL1        0.0048
     19 C          64.4153   92.3385   10.8772 C.3     1  UNL1        0.0048
     20 C          61.2599   89.1194    9.7778 C.3     1  UNL1        0.0124
     21 C          59.8558   89.1590   10.3041 C.3     1  UNL1        0.0421
     22 C          59.5334   89.9756   11.5203 C.2     1  UNL1        0.0503
     23 O          58.9267   91.3390   11.3689 O.co2   1  UNL1       -0.5492
     24 O          59.8177   89.4288   12.8878 O.co2   1  UNL1       -0.5492
     25 C          62.7572   86.9965    9.7444 C.3     1  UNL1        0.0914
     26 C          62.4713   85.6510   10.3429 C.2     1  UNL1        0.2265
     27 O          61.2875   84.8579    9.8742 O.2     1  UNL1       -0.2748
     28 N          63.3692   85.0987   11.4099 N.am    1  UNL1       -0.2832
     29 H          64.1462   85.6192   11.7175 H       1  UNL1        0.1549
     30 C          63.0833   83.7532   12.0084 C.ar    1  UNL1        0.0610
     31 C          62.4344   83.6549   13.3572 C.ar    1  UNL1        0.0164
     32 C          62.1486   82.3095   13.9556 C.ar    1  UNL1        0.0127
     33 C          62.5116   81.0624   13.2052 C.ar    1  UNL1        0.0586
     34 CL         62.2258   79.7170   13.8037 Cl      1  UNL1       -0.0822
     35 C          63.1605   81.1608   11.8564 C.ar    1  UNL1        0.0240
     36 C          63.4464   82.5062   11.2580 C.ar    1  UNL1        0.0719
     37 CL         64.0953   82.6046    9.9092 Cl      1  UNL1       -0.0809
@<TRIPOS>UNITY_ATOM_ATTR
24 1
charge -1
@<TRIPOS>BOND
     1    13    14    1
     2    14    15    1
     3    14    16    1
     4    14    12    1
     5    12     7    1
     6     7     8   ar
     7     8     9   ar
     8     9     2    1
     9     2     3   ar
    10     3     4   ar
    11     4     5   ar
    12     5     1    1
    13     1    20    1
    14    20    21    1
    15    21    22    1
    16    22    23   ar
    17    22    24   ar
    18     1    25    1
    19    25    26    1
    20    26    27    2
    21    26    28   am
    22    28    30    1
    23    30    31   ar
    24    31    32   ar
    25    32    33   ar
    26    33    34    1
    27    33    35   ar
    28    35    36   ar
    29    36    37    1
    30     5     6   ar
    31     6    17    1
    32    17    18    1
    33    18    19    1
    34     9    10   ar
    35    10    11   ar
    36    11     7   ar
    37     6     2   ar
    38    19    17    1
    39    36    30   ar
    40    28    29    1
@<TRIPOS>MOLECULE
*****
 37 40 0 0 0
SMALL
GASTEIGER

@<TRIPOS>ATOM
      1 C          64.8221   90.4867   14.5615 C.3     1  UNL1        0.0528
      2 C          63.4199   87.3151   12.8179 C.ar    1  UNL1        0.1932
      3 O          64.0914   86.7138   14.0169 O.2     1  UNL1       -0.3524
      4 N          64.6984   87.8287   14.8159 N.ar    1  UNL1       -0.0816
      5 C          64.4021   89.1190   14.1109 C.ar    1  UNL1        0.0967
      6 C          63.6119   88.8016   12.8760 C.ar    1  UNL1        0.0329
      7 C          61.5932   86.0031    9.6545 C.ar    1  UNL1        0.1545
      8 C          62.3154   87.0900   10.3942 C.ar    1  UNL1        0.0612
      9 C          62.6854   86.5621   11.7486 C.ar    1  UNL1        0.1593
     10 N          62.1919   85.1489   11.8460 N.ar    1  UNL1       -0.0742
     11 O          61.5169   84.8034   10.5517 O.2     1  UNL1       -0.3577
     12 C          61.0439   86.0990    8.2620 C.3     1  UNL1        0.0673
     13 C          60.1800   85.0939    6.6056 C.3     1  UNL1        0.0004
     14 C          61.5592   85.1873    7.1881 C.3     1  UNL1        0.0072
     15 C          62.9383   85.2807    7.7705 C.3     1  UNL1        0.0004
     16 C          62.0743   84.2757    6.1141 C.3     1  UNL1        0.0004
     17 C          63.1031   89.7961   11.8750 C.3     1  UNL1        0.0268
     18 C          63.2688   90.5393   10.5825 C.3     1  UNL1        0.0048
     19 C          62.0562   90.7753   11.4334 C.3     1  UNL1        0.0048
     20 C          64.0016   91.2272   15.5755 C.3     1  UNL1        0.0124
     21 C          63.6089   90.5553   16.8579 C.3     1  UNL1        0.0421
     22 C          62.7296   89.3405   16.8295 C.2     1  UNL1        0.0503
     23 O          61.4863   89.3341   15.9903 O.co2   1  UNL1       -0.5492
     24 O          63.0934   88.1321   17.6402 O.co2   1  UNL1       -0.5492
     25 C          66.0628   91.1139   13.9981 C.3     1  UNL1        0.0914
     26 C          65.9561   92.1430   12.9120 C.2     1  UNL1        0.2265
     27 O          64.6165   92.7085   12.5435 O.2     1  UNL1       -0.2748
     28 N          67.1890   92.6066   12.1943 N.am    1  UNL1       -0.2832
     29 H          68.0682   92.2355   12.4362 H       1  UNL1        0.1549
     30 C          67.0823   93.6358   11.1082 C.ar    1  UNL1        0.0610
     31 C          66.4060   94.9466   11.3808 C.ar    1  UNL1        0.0164
     32 C          66.2994   95.9756   10.2948 C.ar    1  UNL1        0.0127
     33 C          66.8690   95.6938    8.9360 C.ar    1  UNL1        0.0586
     34 CL         66.7623   96.7230    7.8499 Cl      1  UNL1       -0.0822
     35 C          67.5453   94.3830    8.6634 C.ar    1  UNL1        0.0240
     36 C          67.6519   93.3540    9.7495 C.ar    1  UNL1        0.0719
     37 CL         68.3282   92.0431    9.4769 Cl      1  UNL1       -0.0809
@<TRIPOS>UNITY_ATOM_ATTR
24 1
charge -1
@<TRIPOS>BOND
     1    13    14    1
     2    14    15    1
     3    14    16    1
     4    14    12    1
     5    12     7    1
     6     7     8   ar
     7     8     9   ar
     8     9     2    1
     9     2     3   ar
    10     3     4   ar
    11     4     5   ar
    12     5     1    1
    13     1    20    1
    14    20    21    1
    15    21    22    1
    16    22    23   ar
    17    22    24   ar
    18     1    25    1
    19    25    26    1
    20    26    27    2
    21    26    28   am
    22    28    30    1
    23    30    31   ar
    24    31    32   ar
    25    32    33   ar
    26    33    34    1
    27    33    35   ar
    28    35    36   ar
    29    36    37    1
    30     5     6   ar
    31     6    17    1
    32    17    18    1
    33    18    19    1
    34     9    10   ar
    35    10    11   ar
    36    11     7   ar
    37     6     2   ar
    38    19    17    1
    39    36    30   ar
    40    28    29    1
@<TRIPOS>MOLECULE
*****
 37 40 0 0 0
SMALL
GASTEIGER

@<TRIPOS>ATOM
      1 C          62.5856   90.4939   10.9111 C.3     1  UNL1        0.0528
      2 C          62.9467   86.7909   12.0169 C.ar    1  UNL1        0.1932
      3 O          62.5283   86.6266   10.5858 O.2     1  UNL1       -0.3524
      4 N          62.3420   87.9937    9.9974 N.ar    1  UNL1       -0.0816
      5 C          62.6454   89.0030   11.0648 C.ar    1  UNL1        0.0967
      6 C          63.0191   88.2596   12.3128 C.ar    1  UNL1        0.0329
      7 C          63.1467   83.5627   14.1625 C.ar    1  UNL1        0.1545
      8 C          62.5282   84.3637   13.0553 C.ar    1  UNL1        0.0612
      9 C          63.2412   85.6814   12.9824 C.ar    1  UNL1        0.1593
     10 N          64.3003   85.6948   14.0445 N.ar    1  UNL1       -0.0742
     11 O          64.2418   84.3853   14.7739 O.2     1  UNL1       -0.3577
     12 C          62.7411   82.1815   14.5843 C.3     1  UNL1        0.0673
     13 C          61.1703   80.9153   13.9288 C.3     1  UNL1        0.0004
     14 C          62.6139   81.0920   13.5612 C.3     1  UNL1        0.0072
     15 C          64.0573   81.2687   13.1934 C.3     1  UNL1        0.0004
     16 C          62.4865   80.0025   12.5381 C.3     1  UNL1        0.0004
     17 C          63.3987   88.8766   13.6264 C.3     1  UNL1        0.0268
     18 C          63.1632   89.9008   14.6968 C.3     1  UNL1        0.0048
     19 C          64.2913   88.9213   14.8310 C.3     1  UNL1        0.0048
     20 C          61.3352   91.2363   11.2792 C.3     1  UNL1        0.0124
     21 C          59.9936   90.6053   11.0511 C.3     1  UNL1        0.0421
     22 C          59.6158   89.3575   11.7929 C.2     1  UNL1        0.0503
     23 O          59.5115   89.3771   13.2892 O.co2   1  UNL1       -0.5492
     24 O          59.3422   88.0903   11.0386 O.co2   1  UNL1       -0.5492
     25 C          63.7760   91.2425   10.3892 C.3     1  UNL1        0.0914
     26 C          64.7204   91.9097   11.3448 C.2     1  UNL1        0.2265
     27 O          65.1261   93.3369   11.1247 O.2     1  UNL1       -0.2748
     28 N          65.2591   91.1497   12.5204 N.am    1  UNL1       -0.2832
     29 H          64.9929   90.2129   12.6649 H       1  UNL1        0.1549
     30 C          66.2035   91.8169   13.4760 C.ar    1  UNL1        0.0610
     31 C          65.7069   92.3013   14.8059 C.ar    1  UNL1        0.0164
     32 C          66.6513   92.9684   15.7614 C.ar    1  UNL1        0.0127
     33 C          68.0922   93.1512   15.3870 C.ar    1  UNL1        0.0586
     34 CL         69.0366   93.8183   16.3426 Cl      1  UNL1       -0.0822
     35 C          68.5888   92.6668   14.0571 C.ar    1  UNL1        0.0240
     36 C          67.6445   91.9996   13.1016 C.ar    1  UNL1        0.0719
     37 CL         68.1411   91.5152   11.7716 Cl      1  UNL1       -0.0809
@<TRIPOS>UNITY_ATOM_ATTR
24 1
charge -1
@<TRIPOS>BOND
     1    13    14    1
     2    14    15    1
     3    14    16    1
     4    14    12    1
     5    12     7    1
     6     7     8   ar
     7     8     9   ar
     8     9     2    1
     9     2     3   ar
    10     3     4   ar
    11     4     5   ar
    12     5     1    1
    13     1    20    1
    14    20    21    1
    15    21    22    1
    16    22    23   ar
    17    22    24   ar
    18     1    25    1
    19    25    26    1
    20    26    27    2
    21    26    28   am
    22    28    30    1
    23    30    31   ar
    24    31    32   ar
    25    32    33   ar
    26    33    34    1
    27    33    35   ar
    28    35    36   ar
    29    36    37    1
    30     5     6   ar
    31     6    17    1
    32    17    18    1
    33    18    19    1
    34     9    10   ar
    35    10    11   ar
    36    11     7   ar
    37     6     2   ar
    38    19    17    1
    39    36    30   ar
    40    28    29    1
