@<TRIPOS>MOLECULE
*****
 23 24 0 0 0
SMALL
GASTEIGER

@<TRIPOS>ATOM
      1 C          64.3494   91.0693   13.4587 C.ar    1  UNL1        0.1466
      2 N          63.2006   90.4699   12.7031 N.ar    1  UNL1       -0.2017
      3 C          63.0068   90.7943   11.2515 C.ar    1  UNL1        0.2354
      4 N          63.9618   91.7181   10.5554 N.ar    1  UNL1       -0.2015
      5 C          65.1106   92.3174   11.3110 C.ar    1  UNL1        0.1499
      6 C          65.3044   91.9930   12.7627 C.ar    1  UNL1        0.1055
      7 N          66.4533   92.5925   13.5182 N.pl3   1  UNL1       -0.3526
      8 H          67.0801   93.1988   13.0614 H       1  UNL1        0.1425
      9 H          66.5805   92.3796   14.4710 H       1  UNL1        0.1425
     10 N          66.0657   93.2413   10.6150 N.pl3   1  UNL1       -0.2870
     11 C          65.8138   94.7200   10.6156 C.3     1  UNL1        0.1243
     12 C          66.7689   95.6438    9.9196 C.3     1  UNL1        0.1636
     13 O          67.9759   95.0889    9.2229 O.3     1  UNL1       -0.3501
     14 C          68.2277   93.6101    9.2223 C.3     1  UNL1        0.1636
     15 C          67.2726   92.6864    9.9183 C.3     1  UNL1        0.1243
     16 N          64.5432   90.7449   14.9103 N.pl3   1  UNL1       -0.3170
     17 H          65.3716   91.0147   15.3687 H       1  UNL1        0.1482
     18 C          63.4747   90.0093   15.6636 C.3     1  UNL1        0.0882
     19 C          64.3062   87.6767   14.8778 C.3     1  UNL1        0.0017
     20 C          63.5964   88.5309   15.8861 C.3     1  UNL1        0.0196
     21 C          63.0083   87.9068   17.1167 C.3     1  UNL1        0.0017
     22 C          61.8579   90.1948   10.4959 C.1     1  UNL1        0.1400
     23 N          60.7091   89.5954    9.7404 N.1     1  UNL1       -0.1876
@<TRIPOS>BOND
     1    19    20    1
     2    20    21    1
     3    20    18    1
     4    18    16    1
     5    16     1    1
     6     1     2   ar
     7     2     3   ar
     8     3    22    1
     9    22    23    3
    10     3     4   ar
    11     4     5   ar
    12     5    10    1
    13    10    11    1
    14    11    12    1
    15    12    13    1
    16    13    14    1
    17    14    15    1
    18     5     6   ar
    19     6     7    1
    20     6     1   ar
    21    15    10    1
    22    16    17    1
    23     7     8    1
    24     7     9    1
@<TRIPOS>MOLECULE
*****
 23 24 0 0 0
SMALL
GASTEIGER

@<TRIPOS>ATOM
      1 C          64.9627   91.3979   12.7869 C.ar    1  UNL1        0.1466
      2 N          65.9154   91.4505   13.9443 N.ar    1  UNL1       -0.2017
      3 C          67.0214   92.4637   13.9598 C.ar    1  UNL1        0.2354
      4 N          67.1747   93.4242   12.8179 N.ar    1  UNL1       -0.2015
      5 C          66.2220   93.3716   11.6606 C.ar    1  UNL1        0.1499
      6 C          65.1160   92.3584   11.6451 C.ar    1  UNL1        0.1055
      7 N          64.1632   92.3058   10.4877 N.pl3   1  UNL1       -0.3526
      8 H          64.2638   92.9363    9.7382 H       1  UNL1        0.1425
      9 H          63.4373   91.6409   10.4775 H       1  UNL1        0.1425
     10 N          66.3753   94.3321   10.5187 N.pl3   1  UNL1       -0.2870
     11 C          67.2489   93.9772    9.3522 C.3     1  UNL1        0.1243
     12 C          67.4022   94.9377    8.2102 C.3     1  UNL1        0.1636
     13 O          66.6818   96.2532    8.2349 O.3     1  UNL1       -0.3501
     14 C          65.8081   96.6081    9.4015 C.3     1  UNL1        0.1636
     15 C          65.6549   95.6476   10.5433 C.3     1  UNL1        0.1243
     16 N          63.8566   90.3848   12.7715 N.pl3   1  UNL1       -0.3170
     17 H          63.6596   89.8836   11.9473 H       1  UNL1        0.1482
     18 C          63.0507   90.1352   14.0117 C.3     1  UNL1        0.0882
     19 C          63.2015   89.3939   16.4972 C.3     1  UNL1        0.0017
     20 C          63.5551   89.1826   15.0548 C.3     1  UNL1        0.0196
     21 C          64.4130   88.0187   14.6556 C.3     1  UNL1        0.0017
     22 C          67.9742   92.5162   15.1172 C.1     1  UNL1        0.1400
     23 N          68.9270   92.5688   16.2745 N.1     1  UNL1       -0.1876
@<TRIPOS>BOND
     1    19    20    1
     2    20    21    1
     3    20    18    1
     4    18    16    1
     5    16     1    1
     6     1     2   ar
     7     2     3   ar
     8     3    22    1
     9    22    23    3
    10     3     4   ar
    11     4     5   ar
    12     5    10    1
    13    10    11    1
    14    11    12    1
    15    12    13    1
    16    13    14    1
    17    14    15    1
    18     5     6   ar
    19     6     7    1
    20     6     1   ar
    21    15    10    1
    22    16    17    1
    23     7     8    1
    24     7     9    1
@<TRIPOS>MOLECULE
*****
 23 24 0 0 0
SMALL
GASTEIGER

@<TRIPOS>ATOM
      1 C          64.5490   91.5610   12.7856 C.ar    1  UNL1        0.1466
      2 N          65.3866   91.4899   14.0279 N.ar    1  UNL1       -0.2017
      3 C          66.6692   92.2629   14.1130 C.ar    1  UNL1        0.2354
      4 N          67.1142   93.1071   12.9558 N.ar    1  UNL1       -0.2015
      5 C          66.2767   93.1783   11.7135 C.ar    1  UNL1        0.1499
      6 C          64.9941   92.4052   11.6284 C.ar    1  UNL1        0.1055
      7 N          64.1565   92.4764   10.3860 N.pl3   1  UNL1       -0.3526
      8 H          64.4486   93.0305    9.6264 H       1  UNL1        0.1425
      9 H          63.3147   91.9690   10.3301 H       1  UNL1        0.1425
     10 N          66.7217   94.0225   10.5562 N.pl3   1  UNL1       -0.2870
     11 C          66.3841   95.4836   10.5201 C.3     1  UNL1        0.1243
     12 C          66.8292   96.3278    9.3628 C.3     1  UNL1        0.1636
     13 O          67.6118   95.7109    8.2416 O.3     1  UNL1       -0.3501
     14 C          67.9494   94.2498    8.2778 C.3     1  UNL1        0.1636
     15 C          67.5044   93.4056    9.4351 C.3     1  UNL1        0.1243
     16 N          63.2664   90.7879   12.7005 N.pl3   1  UNL1       -0.3170
     17 H          62.4050   91.2484   12.8238 H       1  UNL1        0.1482
     18 C          63.2962   89.3133   12.4275 C.3     1  UNL1        0.0882
     19 C          62.0347   89.6635   10.1834 C.3     1  UNL1        0.0017
     20 C          62.5371   88.7507   11.2625 C.3     1  UNL1        0.0196
     21 C          62.2803   87.2754   11.1766 C.3     1  UNL1        0.0017
     22 C          67.5067   92.1918   15.3554 C.1     1  UNL1        0.1400
     23 N          68.3443   92.1205   16.5977 N.1     1  UNL1       -0.1876
@<TRIPOS>BOND
     1    19    20    1
     2    20    21    1
     3    20    18    1
     4    18    16    1
     5    16     1    1
     6     1     2   ar
     7     2     3   ar
     8     3    22    1
     9    22    23    3
    10     3     4   ar
    11     4     5   ar
    12     5    10    1
    13    10    11    1
    14    11    12    1
    15    12    13    1
    16    13    14    1
    17    14    15    1
    18     5     6   ar
    19     6     7    1
    20     6     1   ar
    21    15    10    1
    22    16    17    1
    23     7     8    1
    24     7     9    1
@<TRIPOS>MOLECULE
*****
 23 24 0 0 0
SMALL
GASTEIGER

@<TRIPOS>ATOM
      1 C          62.8180   87.8925   11.8690 C.ar    1  UNL1        0.1466
      2 N          63.0693   86.5322   12.4491 N.ar    1  UNL1       -0.2017
      3 C          63.7919   86.3963   13.7565 C.ar    1  UNL1        0.2354
      4 N          64.2632   87.6206   14.4838 N.ar    1  UNL1       -0.2015
      5 C          64.0119   88.9808   13.9036 C.ar    1  UNL1        0.1499
      6 C          63.2893   89.1167   12.5962 C.ar    1  UNL1        0.1055
      7 N          63.0380   90.4770   12.0161 N.pl3   1  UNL1       -0.3526
      8 H          63.3474   91.2806   12.4935 H       1  UNL1        0.1425
      9 H          62.5637   90.5663   11.1580 H       1  UNL1        0.1425
     10 N          64.4833   90.2051   14.6309 N.pl3   1  UNL1       -0.2870
     11 C          65.6915   90.9485   14.1434 C.3     1  UNL1        0.1243
     12 C          66.1628   92.1728   14.8707 C.3     1  UNL1        0.1636
     13 O          65.4259   92.6538   16.0855 O.3     1  UNL1       -0.3501
     14 C          64.2176   91.9104   16.5729 C.3     1  UNL1        0.1636
     15 C          63.7463   90.6861   15.8457 C.3     1  UNL1        0.1243
     16 N          62.0954   88.0284   10.5615 N.pl3   1  UNL1       -0.3170
     17 H          62.2439   88.8212    9.9971 H       1  UNL1        0.1482
     18 C          61.1463   86.9564   10.1141 C.3     1  UNL1        0.0882
     19 C          62.7448   85.6185    8.5633 C.3     1  UNL1        0.0017
     20 C          61.3972   86.2203    8.8315 C.3     1  UNL1        0.0196
     21 C          60.3004   86.0859    7.8171 C.3     1  UNL1        0.0017
     22 C          64.0432   85.0360   14.3366 C.1     1  UNL1        0.1400
     23 N          64.2946   83.6757   14.9167 N.1     1  UNL1       -0.1876
@<TRIPOS>BOND
     1    19    20    1
     2    20    21    1
     3    20    18    1
     4    18    16    1
     5    16     1    1
     6     1     2   ar
     7     2     3   ar
     8     3    22    1
     9    22    23    3
    10     3     4   ar
    11     4     5   ar
    12     5    10    1
    13    10    11    1
    14    11    12    1
    15    12    13    1
    16    13    14    1
    17    14    15    1
    18     5     6   ar
    19     6     7    1
    20     6     1   ar
    21    15    10    1
    22    16    17    1
    23     7     8    1
    24     7     9    1
@<TRIPOS>MOLECULE
*****
 23 24 0 0 0
SMALL
GASTEIGER

@<TRIPOS>ATOM
      1 C          64.2366   91.8037   12.2295 C.ar    1  UNL1        0.1466
      2 N          64.1944   91.3448   13.6570 N.ar    1  UNL1       -0.2017
      3 C          63.3627   90.1561   14.0384 C.ar    1  UNL1        0.2354
      4 N          62.5733   89.4264   12.9924 N.ar    1  UNL1       -0.2015
      5 C          62.6154   89.8853   11.5650 C.ar    1  UNL1        0.1499
      6 C          63.4471   91.0739   11.1835 C.ar    1  UNL1        0.1055
      7 N          63.4892   91.5328    9.7560 N.pl3   1  UNL1       -0.3526
      8 H          62.9711   91.0538    9.0695 H       1  UNL1        0.1425
      9 H          64.0351   92.3129    9.5056 H       1  UNL1        0.1425
     10 N          61.8259   89.1555   10.5189 N.pl3   1  UNL1       -0.2870
     11 C          62.1822   87.7435   10.1595 C.3     1  UNL1        0.1243
     12 C          61.3927   87.0138    9.1134 C.3     1  UNL1        0.1636
     13 O          60.2469   87.6961    8.4268 O.3     1  UNL1       -0.3501
     14 C          59.8906   89.1082    8.7862 C.3     1  UNL1        0.1636
     15 C          60.6801   89.8379    9.8322 C.3     1  UNL1        0.1243
     16 N          65.0682   92.9923   11.8481 N.pl3   1  UNL1       -0.3170
     17 H          64.6407   93.8682   11.7097 H       1  UNL1        0.1482
     18 C          66.5513   92.8464   11.6776 C.3     1  UNL1        0.0882
     19 C          68.1338   92.0081    9.7952 C.3     1  UNL1        0.0017
     20 C          67.1725   93.0307   10.3247 C.3     1  UNL1        0.0196
     21 C          66.8323   94.2374    9.5014 C.3     1  UNL1        0.0017
     22 C          63.3206   89.6973   15.4659 C.1     1  UNL1        0.1400
     23 N          63.2785   89.2384   16.8933 N.1     1  UNL1       -0.1876
@<TRIPOS>BOND
     1    19    20    1
     2    20    21    1
     3    20    18    1
     4    18    16    1
     5    16     1    1
     6     1     2   ar
     7     2     3   ar
     8     3    22    1
     9    22    23    3
    10     3     4   ar
    11     4     5   ar
    12     5    10    1
    13    10    11    1
    14    11    12    1
    15    12    13    1
    16    13    14    1
    17    14    15    1
    18     5     6   ar
    19     6     7    1
    20     6     1   ar
    21    15    10    1
    22    16    17    1
    23     7     8    1
    24     7     9    1
@<TRIPOS>MOLECULE
*****
 23 24 0 0 0
SMALL
GASTEIGER

@<TRIPOS>ATOM
      1 C          62.4014   87.8731   10.9522 C.ar    1  UNL1        0.1466
      2 N          62.9816   88.9401   11.8324 N.ar    1  UNL1       -0.2017
      3 C          63.6259   88.5693   13.1352 C.ar    1  UNL1        0.2354
      4 N          63.6899   87.1316   13.5579 N.ar    1  UNL1       -0.2015
      5 C          63.1097   86.0646   12.6777 C.ar    1  UNL1        0.1499
      6 C          62.4654   86.4354   11.3748 C.ar    1  UNL1        0.1055
      7 N          61.8852   85.3683   10.4946 N.pl3   1  UNL1       -0.3526
      8 H          61.9272   84.4246   10.7720 H       1  UNL1        0.1425
      9 H          61.4623   85.6116    9.6395 H       1  UNL1        0.1425
     10 N          63.1737   84.6267   13.1003 N.pl3   1  UNL1       -0.2870
     11 C          64.0848   83.6744   12.3842 C.3     1  UNL1        0.1243
     12 C          64.1488   82.2365   12.8068 C.3     1  UNL1        0.1636
     13 O          63.3017   81.7511   13.9456 O.3     1  UNL1       -0.3501
     14 C          62.3906   82.7035   14.6617 C.3     1  UNL1        0.1636
     15 C          62.3266   84.1413   14.2390 C.3     1  UNL1        0.1243
     16 N          61.7571   88.2439    9.6493 N.pl3   1  UNL1       -0.3170
     17 H          62.3139   88.5202    8.8858 H       1  UNL1        0.1482
     18 C          60.2645   88.1938    9.5097 C.3     1  UNL1        0.0882
     19 C          59.3880   89.0319    7.2119 C.3     1  UNL1        0.0017
     20 C          59.6453   87.9095    8.1733 C.3     1  UNL1        0.0196
     21 C          59.2836   86.5030    7.7982 C.3     1  UNL1        0.0017
     22 C          64.2061   89.6364   14.0154 C.1     1  UNL1        0.1400
     23 N          64.7863   90.7035   14.8956 N.1     1  UNL1       -0.1876
@<TRIPOS>BOND
     1    19    20    1
     2    20    21    1
     3    20    18    1
     4    18    16    1
     5    16     1    1
     6     1     2   ar
     7     2     3   ar
     8     3    22    1
     9    22    23    3
    10     3     4   ar
    11     4     5   ar
    12     5    10    1
    13    10    11    1
    14    11    12    1
    15    12    13    1
    16    13    14    1
    17    14    15    1
    18     5     6   ar
    19     6     7    1
    20     6     1   ar
    21    15    10    1
    22    16    17    1
    23     7     8    1
    24     7     9    1
@<TRIPOS>MOLECULE
*****
 23 24 0 0 0
SMALL
GASTEIGER

@<TRIPOS>ATOM
      1 C          64.4340   91.7704   12.6358 C.ar    1  UNL1        0.1466
      2 N          64.3241   91.2695   14.0454 N.ar    1  UNL1       -0.2017
      3 C          63.4272   90.1094   14.3613 C.ar    1  UNL1        0.2354
      4 N          62.6404   89.4501   13.2677 N.ar    1  UNL1       -0.2015
      5 C          62.7504   89.9509   11.8581 C.ar    1  UNL1        0.1499
      6 C          63.6472   91.1111   11.5421 C.ar    1  UNL1        0.1055
      7 N          63.7571   91.6119   10.1325 N.pl3   1  UNL1       -0.3526
      8 H          63.2407   91.1792    9.4146 H       1  UNL1        0.1425
      9 H          64.3458   92.3734    9.9251 H       1  UNL1        0.1425
     10 N          61.9635   89.2916   10.7643 N.pl3   1  UNL1       -0.2870
     11 C          60.8095   90.0116   10.1320 C.3     1  UNL1        0.1243
     12 C          60.0227   89.3523    9.0382 C.3     1  UNL1        0.1636
     13 O          60.3899   87.9730    8.5768 O.3     1  UNL1       -0.3501
     14 C          61.5440   87.2531    9.2093 C.3     1  UNL1        0.1636
     15 C          62.3307   87.9124   10.3030 C.3     1  UNL1        0.1243
     16 N          65.3308   92.9305   12.3199 N.pl3   1  UNL1       -0.3170
     17 H          65.3681   93.2886   11.4036 H       1  UNL1        0.1482
     18 C          66.1709   93.5450   13.4000 C.3     1  UNL1        0.0882
     19 C          67.2886   92.7864   15.6193 C.3     1  UNL1        0.0017
     20 C          67.1872   92.7130   14.1245 C.3     1  UNL1        0.0196
     21 C          68.1020   91.8077   13.3543 C.3     1  UNL1        0.0017
     22 C          63.3173   89.6086   15.7710 C.1     1  UNL1        0.1400
     23 N          63.2073   89.1077   17.1806 N.1     1  UNL1       -0.1876
@<TRIPOS>BOND
     1    19    20    1
     2    20    21    1
     3    20    18    1
     4    18    16    1
     5    16     1    1
     6     1     2   ar
     7     2     3   ar
     8     3    22    1
     9    22    23    3
    10     3     4   ar
    11     4     5   ar
    12     5    10    1
    13    10    11    1
    14    11    12    1
    15    12    13    1
    16    13    14    1
    17    14    15    1
    18     5     6   ar
    19     6     7    1
    20     6     1   ar
    21    15    10    1
    22    16    17    1
    23     7     8    1
    24     7     9    1
@<TRIPOS>MOLECULE
*****
 23 24 0 0 0
SMALL
GASTEIGER

@<TRIPOS>ATOM
      1 C          63.5973   85.2871   13.5413 C.ar    1  UNL1        0.1466
      2 N          64.0336   86.5791   14.1658 N.ar    1  UNL1       -0.2017
      3 C          63.7097   87.8823   13.4974 C.ar    1  UNL1        0.2354
      4 N          62.9495   87.8935   12.2044 N.ar    1  UNL1       -0.2015
      5 C          62.5132   86.6014   11.5798 C.ar    1  UNL1        0.1499
      6 C          62.8370   85.2982   12.2483 C.ar    1  UNL1        0.1055
      7 N          62.4006   84.0061   11.6236 N.pl3   1  UNL1       -0.3526
      8 H          61.9016   84.0134   10.7750 H       1  UNL1        0.1425
      9 H          62.6132   83.1508   12.0623 H       1  UNL1        0.1425
     10 N          61.7529   86.6125   10.2868 N.pl3   1  UNL1       -0.2870
     11 C          60.4581   87.3628   10.1844 C.3     1  UNL1        0.1243
     12 C          59.6978   87.3739    8.8914 C.3     1  UNL1        0.1636
     13 O          60.2324   86.6346    7.7007 O.3     1  UNL1       -0.3501
     14 C          61.5273   85.8843    7.8031 C.3     1  UNL1        0.1636
     15 C          62.2875   85.8733    9.0961 C.3     1  UNL1        0.1243
     16 N          63.9211   83.9839   14.2097 N.pl3   1  UNL1       -0.3170
     17 H          64.8578   83.6919   14.2913 H       1  UNL1        0.1482
     18 C          62.8179   83.1255   14.7538 C.3     1  UNL1        0.0882
     19 C          63.6813   80.9966   13.5403 C.3     1  UNL1        0.0017
     20 C          62.5571   81.7733   14.1593 C.3     1  UNL1        0.0196
     21 C          61.1722   81.1976   14.1839 C.3     1  UNL1        0.0017
     22 C          64.1461   89.1744   14.1220 C.1     1  UNL1        0.1400
     23 N          64.5825   90.4664   14.7467 N.1     1  UNL1       -0.1876
@<TRIPOS>BOND
     1    19    20    1
     2    20    21    1
     3    20    18    1
     4    18    16    1
     5    16     1    1
     6     1     2   ar
     7     2     3   ar
     8     3    22    1
     9    22    23    3
    10     3     4   ar
    11     4     5   ar
    12     5    10    1
    13    10    11    1
    14    11    12    1
    15    12    13    1
    16    13    14    1
    17    14    15    1
    18     5     6   ar
    19     6     7    1
    20     6     1   ar
    21    15    10    1
    22    16    17    1
    23     7     8    1
    24     7     9    1
@<TRIPOS>MOLECULE
*****
 23 24 0 0 0
SMALL
GASTEIGER

@<TRIPOS>ATOM
      1 C          62.9860   89.4152   12.2784 C.ar    1  UNL1        0.1466
      2 N          63.5640   88.4359   13.2566 N.ar    1  UNL1       -0.2017
      3 C          63.3893   86.9627   13.0351 C.ar    1  UNL1        0.2354
      4 N          62.6365   86.4687   11.8354 N.ar    1  UNL1       -0.2015
      5 C          62.0585   87.4479   10.8572 C.ar    1  UNL1        0.1499
      6 C          62.2332   88.9212   11.0787 C.ar    1  UNL1        0.1055
      7 N          61.6551   89.9004   10.1004 N.pl3   1  UNL1       -0.3526
      8 H          61.1611   89.5762    9.3130 H       1  UNL1        0.1425
      9 H          61.7698   90.8674   10.2458 H       1  UNL1        0.1425
     10 N          61.3057   86.9540    9.6575 N.pl3   1  UNL1       -0.2870
     11 C          61.9761   86.0394    8.6756 C.3     1  UNL1        0.1243
     12 C          61.2232   85.5454    7.4759 C.3     1  UNL1        0.1636
     13 O          59.8000   85.9661    7.2580 O.3     1  UNL1       -0.3501
     14 C          59.1296   86.8808    8.2399 C.3     1  UNL1        0.1636
     15 C          59.8824   87.3747    9.4396 C.3     1  UNL1        0.1243
     16 N          63.1607   90.8884   12.4999 N.pl3   1  UNL1       -0.3170
     17 H          62.4644   91.4015   12.9701 H       1  UNL1        0.1482
     18 C          64.3964   91.5799   12.0049 C.3     1  UNL1        0.0882
     19 C          66.2100   93.3000   12.7132 C.3     1  UNL1        0.0017
     20 C          65.4392   92.0411   12.9795 C.3     1  UNL1        0.0196
     21 C          65.7111   91.2433   14.2203 C.3     1  UNL1        0.0017
     22 C          63.9674   85.9834   14.0133 C.1     1  UNL1        0.1400
     23 N          64.5454   85.0042   14.9915 N.1     1  UNL1       -0.1876
@<TRIPOS>BOND
     1    19    20    1
     2    20    21    1
     3    20    18    1
     4    18    16    1
     5    16     1    1
     6     1     2   ar
     7     2     3   ar
     8     3    22    1
     9    22    23    3
    10     3     4   ar
    11     4     5   ar
    12     5    10    1
    13    10    11    1
    14    11    12    1
    15    12    13    1
    16    13    14    1
    17    14    15    1
    18     5     6   ar
    19     6     7    1
    20     6     1   ar
    21    15    10    1
    22    16    17    1
    23     7     8    1
    24     7     9    1
