@<TRIPOS>MOLECULE
*****
 27 29 0 0 0
SMALL
GASTEIGER

@<TRIPOS>ATOM
      1 O          61.7696   88.4402    9.6005 O.3     1  UNL1       -0.4754
      2 C          63.5845   81.2105   13.3673 C.3     1  UNL1        0.0375
      3 C          63.2074   82.5869   12.9054 C.ar    1  UNL1        0.0503
      4 C          63.2782   82.9346   11.4480 C.ar    1  UNL1       -0.0167
      5 C          63.7263   81.9060   10.4524 C.3     1  UNL1        0.0310
      6 C          62.9011   84.3111   10.9861 C.ar    1  UNL1        0.0308
      7 C          62.9720   84.6588    9.5287 C.ar    1  UNL1        0.0058
      8 C          62.5948   86.0351    9.0668 C.ar    1  UNL1        0.0371
      9 C          62.1468   87.0638   10.0624 C.ar    1  UNL1        0.1416
     10 C          62.0759   86.7161   11.5198 C.ar    1  UNL1        0.0744
     11 C          62.4531   85.3397   11.9816 C.ar    1  UNL1        0.1514
     12 O          62.3822   84.9920   13.4391 O.2     1  UNL1       -0.4212
     13 C          62.7593   83.6156   13.9009 C.ar    1  UNL1        0.3414
     14 O          62.6885   83.2678   15.3584 O.2     1  UNL1       -0.2448
     15 C          61.4973   89.5201   10.6052 C.3     1  UNL1        0.2054
     16 C          62.6320   90.3226   11.1699 C.3     1  UNL1        0.0465
     17 C          63.0237   90.1585   12.6084 C.3     1  UNL1        0.0211
     18 C          64.1583   90.9609   13.1730 C.3     1  UNL1        0.0722
     19 N          64.9011   91.9276   12.2990 N.3     1  UNL1       -0.2727
     20 C          64.5093   92.0917   10.8604 C.3     1  UNL1        0.0722
     21 C          63.3747   91.2893   10.2959 C.3     1  UNL1        0.0211
     22 C          66.0357   92.7301   12.8636 C.3     1  UNL1        0.0723
     23 C          67.2688   92.0372   13.3630 C.3     1  UNL1        0.0231
     24 C          67.4110   91.7180   14.8217 C.3     1  UNL1        0.0737
     25 C          67.1529   92.7789   15.8503 C.3     1  UNL1        0.3186
     26 F          68.1286   93.9041   16.0283 F       1  UNL1       -0.1984
     27 F          65.9190   92.7145   16.7009 F       1  UNL1       -0.1984
@<TRIPOS>BOND
     1     2     3    1
     2     3     4   ar
     3     4     5    1
     4     4     6   ar
     5     6     7   ar
     6     7     8   ar
     7     8     9   ar
     8     9     1    1
     9     1    15    1
    10    15    16    1
    11    16    17    1
    12    17    18    1
    13    18    19    1
    14    19    22    1
    15    22    23    1
    16    23    24    1
    17    24    25    1
    18    25    26    1
    19    25    27    1
    20    19    20    1
    21    20    21    1
    22     9    10   ar
    23    10    11   ar
    24    11    12   ar
    25    12    13   ar
    26    13    14    2
    27    13     3   ar
    28    11     6   ar
    29    21    16    1
@<TRIPOS>MOLECULE
*****
 27 29 0 0 0
SMALL
GASTEIGER

@<TRIPOS>ATOM
      1 O          61.2632   89.3200    9.4717 O.3     1  UNL1       -0.4754
      2 C          66.9141   93.3868   14.0847 C.3     1  UNL1        0.0375
      3 C          65.9647   92.7993   13.0829 C.ar    1  UNL1        0.0503
      4 C          65.0608   91.6697   13.4789 C.ar    1  UNL1       -0.0167
      5 C          65.1063   91.1275   14.8768 C.3     1  UNL1        0.0310
      6 C          64.1114   91.0822   12.4771 C.ar    1  UNL1        0.0308
      7 C          63.2075   89.9526   12.8732 C.ar    1  UNL1        0.0058
      8 C          62.2581   89.3652   11.8714 C.ar    1  UNL1        0.0371
      9 C          62.2127   89.9074   10.4735 C.ar    1  UNL1        0.1416
     10 C          63.1165   91.0371   10.0775 C.ar    1  UNL1        0.0744
     11 C          64.0659   91.6245   11.0793 C.ar    1  UNL1        0.1514
     12 O          64.9699   92.7541   10.6833 O.2     1  UNL1       -0.4212
     13 C          65.9192   93.3415   11.6851 C.ar    1  UNL1        0.3414
     14 O          66.8232   94.4712   11.2891 O.2     1  UNL1       -0.2448
     15 C          60.6246   87.9885    9.7348 C.3     1  UNL1        0.2054
     16 C          61.4777   86.7637    9.8836 C.3     1  UNL1        0.0465
     17 C          61.5341   86.0442   11.1986 C.3     1  UNL1        0.0211
     18 C          62.3872   84.8195   11.3474 C.3     1  UNL1        0.0722
     19 N          63.1840   84.3143   10.1812 N.3     1  UNL1       -0.2727
     20 C          63.1276   85.0338    8.8663 C.3     1  UNL1        0.0722
     21 C          62.2745   86.2585    8.7175 C.3     1  UNL1        0.0211
     22 C          64.0371   83.0895   10.3301 C.3     1  UNL1        0.0723
     23 C          63.4709   81.8536   10.9639 C.3     1  UNL1        0.0231
     24 C          63.5348   81.6774   12.4521 C.3     1  UNL1        0.0737
     25 C          62.4545   80.9187   13.1646 C.3     1  UNL1        0.3186
     26 F          62.2680   79.4539   12.9011 F       1  UNL1       -0.1984
     27 F          61.5608   81.6249   14.1406 F       1  UNL1       -0.1984
@<TRIPOS>BOND
     1     2     3    1
     2     3     4   ar
     3     4     5    1
     4     4     6   ar
     5     6     7   ar
     6     7     8   ar
     7     8     9   ar
     8     9     1    1
     9     1    15    1
    10    15    16    1
    11    16    17    1
    12    17    18    1
    13    18    19    1
    14    19    22    1
    15    22    23    1
    16    23    24    1
    17    24    25    1
    18    25    26    1
    19    25    27    1
    20    19    20    1
    21    20    21    1
    22     9    10   ar
    23    10    11   ar
    24    11    12   ar
    25    12    13   ar
    26    13    14    2
    27    13     3   ar
    28    11     6   ar
    29    21    16    1
@<TRIPOS>MOLECULE
*****
 27 29 0 0 0
SMALL
GASTEIGER

@<TRIPOS>ATOM
      1 O          60.9193   88.4701    9.4475 O.3     1  UNL1       -0.4754
      2 C          64.0948   81.6501   13.0744 C.3     1  UNL1        0.0375
      3 C          63.4471   82.9304   12.6368 C.ar    1  UNL1        0.0503
      4 C          63.5100   83.3491   11.1978 C.ar    1  UNL1       -0.0167
      5 C          64.2206   82.4876   10.1964 C.3     1  UNL1        0.0310
      6 C          62.8624   84.6294   10.7602 C.ar    1  UNL1        0.0308
      7 C          62.9253   85.0481    9.3212 C.ar    1  UNL1        0.0058
      8 C          62.2776   86.3283    8.8837 C.ar    1  UNL1        0.0371
      9 C          61.5670   87.1898    9.8851 C.ar    1  UNL1        0.1416
     10 C          61.5041   86.7711   11.3241 C.ar    1  UNL1        0.0744
     11 C          62.1518   85.4909   11.7616 C.ar    1  UNL1        0.1514
     12 O          62.0889   85.0721   13.2007 O.2     1  UNL1       -0.4212
     13 C          62.7366   83.7919   13.6382 C.ar    1  UNL1        0.3414
     14 O          62.6737   83.3731   15.0773 O.2     1  UNL1       -0.2448
     15 C          60.8314   89.6286   10.3962 C.3     1  UNL1        0.2054
     16 C          62.0827   90.3076   10.8689 C.3     1  UNL1        0.0465
     17 C          62.8460   91.2046    9.9400 C.3     1  UNL1        0.0211
     18 C          64.0972   91.8835   10.4127 C.3     1  UNL1        0.0722
     19 N          64.5851   91.6655   11.8143 N.3     1  UNL1       -0.2727
     20 C          63.8218   90.7686   12.7432 C.3     1  UNL1        0.0722
     21 C          62.5706   90.0896   12.2705 C.3     1  UNL1        0.0211
     22 C          65.8364   92.3445   12.2870 C.3     1  UNL1        0.0723
     23 C          66.7074   93.0766   11.3097 C.3     1  UNL1        0.0231
     24 C          67.7932   92.3447   10.5781 C.3     1  UNL1        0.0737
     25 C          68.4291   92.9611    9.3674 C.3     1  UNL1        0.3186
     26 F          68.4944   94.4535    9.2323 F       1  UNL1       -0.1984
     27 F          68.9996   92.0850    8.2917 F       1  UNL1       -0.1984
@<TRIPOS>BOND
     1     2     3    1
     2     3     4   ar
     3     4     5    1
     4     4     6   ar
     5     6     7   ar
     6     7     8   ar
     7     8     9   ar
     8     9     1    1
     9     1    15    1
    10    15    16    1
    11    16    17    1
    12    17    18    1
    13    18    19    1
    14    19    22    1
    15    22    23    1
    16    23    24    1
    17    24    25    1
    18    25    26    1
    19    25    27    1
    20    19    20    1
    21    20    21    1
    22     9    10   ar
    23    10    11   ar
    24    11    12   ar
    25    12    13   ar
    26    13    14    2
    27    13     3   ar
    28    11     6   ar
    29    21    16    1
@<TRIPOS>MOLECULE
*****
 27 29 0 0 0
SMALL
GASTEIGER

@<TRIPOS>ATOM
      1 O          60.5831   89.2281    9.4983 O.3     1  UNL1       -0.4754
      2 C          65.6960   91.9561   15.5121 C.3     1  UNL1        0.0375
      3 C          64.6589   91.3629   14.6052 C.ar    1  UNL1        0.0503
      4 C          64.7315   91.6010   13.1260 C.ar    1  UNL1       -0.0167
      5 C          65.8411   92.4324   12.5537 C.3     1  UNL1        0.0310
      6 C          63.6944   91.0078   12.2190 C.ar    1  UNL1        0.0308
      7 C          63.7669   91.2460   10.7399 C.ar    1  UNL1        0.0058
      8 C          62.7298   90.6527    9.8330 C.ar    1  UNL1        0.0371
      9 C          61.6202   89.8214   10.4052 C.ar    1  UNL1        0.1416
     10 C          61.5476   89.5832   11.8844 C.ar    1  UNL1        0.0744
     11 C          62.5847   90.1764   12.7913 C.ar    1  UNL1        0.1514
     12 O          62.5122   89.9383   14.2705 O.2     1  UNL1       -0.4212
     13 C          63.5493   90.5315   15.1774 C.ar    1  UNL1        0.3414
     14 O          63.4767   90.2934   16.6567 O.2     1  UNL1       -0.2448
     15 C          60.1281   87.8136    9.7033 C.3     1  UNL1        0.2054
     16 C          61.1374   86.7088    9.8080 C.3     1  UNL1        0.0465
     17 C          61.3891   86.0457   11.1297 C.3     1  UNL1        0.0211
     18 C          62.3983   84.9410   11.2344 C.3     1  UNL1        0.0722
     19 N          63.1558   84.4994   10.0173 N.3     1  UNL1       -0.2727
     20 C          62.9041   85.1625    8.6957 C.3     1  UNL1        0.0722
     21 C          61.8949   86.2672    8.5910 C.3     1  UNL1        0.0211
     22 C          64.1650   83.3946   10.1220 C.3     1  UNL1        0.0723
     23 C          64.1780   82.5024   11.3278 C.3     1  UNL1        0.0231
     24 C          63.1335   81.4372   11.4838 C.3     1  UNL1        0.0737
     25 C          62.4043   81.2869   12.7860 C.3     1  UNL1        0.3186
     26 F          61.9744   79.9276   13.2523 F       1  UNL1       -0.1984
     27 F          62.1050   82.4959   13.6219 F       1  UNL1       -0.1984
@<TRIPOS>BOND
     1     2     3    1
     2     3     4   ar
     3     4     5    1
     4     4     6   ar
     5     6     7   ar
     6     7     8   ar
     7     8     9   ar
     8     9     1    1
     9     1    15    1
    10    15    16    1
    11    16    17    1
    12    17    18    1
    13    18    19    1
    14    19    22    1
    15    22    23    1
    16    23    24    1
    17    24    25    1
    18    25    26    1
    19    25    27    1
    20    19    20    1
    21    20    21    1
    22     9    10   ar
    23    10    11   ar
    24    11    12   ar
    25    12    13   ar
    26    13    14    2
    27    13     3   ar
    28    11     6   ar
    29    21    16    1
@<TRIPOS>MOLECULE
*****
 27 29 0 0 0
SMALL
GASTEIGER

@<TRIPOS>ATOM
      1 O          64.4637   82.7202   13.2395 O.3     1  UNL1       -0.4754
      2 C          60.2290   87.5650    7.9153 C.3     1  UNL1        0.0375
      3 C          60.8801   86.8153    9.0397 C.ar    1  UNL1        0.0503
      4 C          61.8593   85.7187    8.7421 C.ar    1  UNL1       -0.0167
      5 C          62.1874   85.3717    7.3201 C.3     1  UNL1        0.0310
      6 C          62.5104   84.9690    9.8665 C.ar    1  UNL1        0.0308
      7 C          63.4896   83.8724    9.5688 C.ar    1  UNL1        0.0058
      8 C          64.1406   83.1228   10.6932 C.ar    1  UNL1        0.0371
      9 C          63.8126   83.4699   12.1151 C.ar    1  UNL1        0.1416
     10 C          62.8334   84.5665   12.4127 C.ar    1  UNL1        0.0744
     11 C          62.1823   85.3161   11.2884 C.ar    1  UNL1        0.1514
     12 O          61.2031   86.4128   11.5860 O.2     1  UNL1       -0.4212
     13 C          60.5520   87.1623   10.4616 C.ar    1  UNL1        0.3414
     14 O          59.5728   88.2590   10.7592 O.2     1  UNL1       -0.2448
     15 C          63.9427   82.8653   14.6386 C.3     1  UNL1        0.2054
     16 C          63.7431   84.2308   15.2267 C.3     1  UNL1        0.0465
     17 C          64.6993   85.3376   14.8944 C.3     1  UNL1        0.0211
     18 C          64.4997   86.7030   15.4825 C.3     1  UNL1        0.0722
     19 N          63.3439   86.9614   16.4030 N.3     1  UNL1       -0.2727
     20 C          62.3877   85.8546   16.7353 C.3     1  UNL1        0.0722
     21 C          62.5873   84.4892   16.1472 C.3     1  UNL1        0.0211
     22 C          63.1443   88.3269   16.9912 C.3     1  UNL1        0.0723
     23 C          62.8192   89.4877   16.0987 C.3     1  UNL1        0.0231
     24 C          63.9074   90.4188   15.6529 C.3     1  UNL1        0.0737
     25 C          64.6687   90.1337   14.3921 C.3     1  UNL1        0.3186
     26 F          64.1375   89.1378   13.4042 F       1  UNL1       -0.1984
     27 F          65.9611   90.8446   14.1194 F       1  UNL1       -0.1984
@<TRIPOS>BOND
     1     2     3    1
     2     3     4   ar
     3     4     5    1
     4     4     6   ar
     5     6     7   ar
     6     7     8   ar
     7     8     9   ar
     8     9     1    1
     9     1    15    1
    10    15    16    1
    11    16    17    1
    12    17    18    1
    13    18    19    1
    14    19    22    1
    15    22    23    1
    16    23    24    1
    17    24    25    1
    18    25    26    1
    19    25    27    1
    20    19    20    1
    21    20    21    1
    22     9    10   ar
    23    10    11   ar
    24    11    12   ar
    25    12    13   ar
    26    13    14    2
    27    13     3   ar
    28    11     6   ar
    29    21    16    1
@<TRIPOS>MOLECULE
*****
 27 29 0 0 0
SMALL
GASTEIGER

@<TRIPOS>ATOM
      1 O          64.5220   83.4964   14.0408 O.3     1  UNL1       -0.4754
      2 C          60.4014   86.9591    7.6547 C.3     1  UNL1        0.0375
      3 C          61.0077   86.4726    8.9377 C.ar    1  UNL1        0.0503
      4 C          62.0971   85.4420    8.9090 C.ar    1  UNL1       -0.0167
      5 C          62.5803   84.8977    7.5974 C.3     1  UNL1        0.0310
      6 C          62.7034   84.9555   10.1920 C.ar    1  UNL1        0.0308
      7 C          63.7928   83.9249   10.1633 C.ar    1  UNL1        0.0058
      8 C          64.3990   83.4385   11.4462 C.ar    1  UNL1        0.0371
      9 C          63.9158   83.9828   12.7578 C.ar    1  UNL1        0.1416
     10 C          62.8264   85.0134   12.7865 C.ar    1  UNL1        0.0744
     11 C          62.2202   85.4998   11.5036 C.ar    1  UNL1        0.1514
     12 O          61.1307   86.5305   11.5322 O.2     1  UNL1       -0.4212
     13 C          60.5245   87.0169   10.2493 C.ar    1  UNL1        0.3414
     14 O          59.4350   88.0476   10.2779 O.2     1  UNL1       -0.2448
     15 C          63.9833   83.9784   15.3550 C.3     1  UNL1        0.2054
     16 C          63.8256   85.4487   15.6071 C.3     1  UNL1        0.0465
     17 C          63.0078   85.9268   16.7701 C.3     1  UNL1        0.0211
     18 C          62.8501   87.3970   17.0222 C.3     1  UNL1        0.0722
     19 N          63.5102   88.3891   16.1111 N.3     1  UNL1       -0.2727
     20 C          64.3280   87.9111   14.9481 C.3     1  UNL1        0.0722
     21 C          64.4856   86.4409   14.6961 C.3     1  UNL1        0.0211
     22 C          63.3525   89.8594   16.3632 C.3     1  UNL1        0.0723
     23 C          63.9881   90.8519   15.4353 C.3     1  UNL1        0.0231
     24 C          64.9150   91.8989   15.9779 C.3     1  UNL1        0.0737
     25 C          66.1729   92.2437   15.2370 C.3     1  UNL1        0.3186
     26 F          66.4543   93.6677   14.8590 F       1  UNL1       -0.1984
     27 F          67.1494   91.1644   14.8741 F       1  UNL1       -0.1984
@<TRIPOS>BOND
     1     2     3    1
     2     3     4   ar
     3     4     5    1
     4     4     6   ar
     5     6     7   ar
     6     7     8   ar
     7     8     9   ar
     8     9     1    1
     9     1    15    1
    10    15    16    1
    11    16    17    1
    12    17    18    1
    13    18    19    1
    14    19    22    1
    15    22    23    1
    16    23    24    1
    17    24    25    1
    18    25    26    1
    19    25    27    1
    20    19    20    1
    21    20    21    1
    22     9    10   ar
    23    10    11   ar
    24    11    12   ar
    25    12    13   ar
    26    13    14    2
    27    13     3   ar
    28    11     6   ar
    29    21    16    1
@<TRIPOS>MOLECULE
*****
 27 29 0 0 0
SMALL
GASTEIGER

@<TRIPOS>ATOM
      1 O          60.7999   88.6112    8.9816 O.3     1  UNL1       -0.4754
      2 C          64.1322   81.7983   12.4788 C.3     1  UNL1        0.0375
      3 C          63.6402   82.9511   11.6547 C.ar    1  UNL1        0.0503
      4 C          62.7678   84.0001   12.2779 C.ar    1  UNL1       -0.0167
      5 C          62.3873   83.8964   13.7251 C.3     1  UNL1        0.0310
      6 C          62.2758   85.1529   11.4538 C.ar    1  UNL1        0.0308
      7 C          61.4034   86.2020   12.0770 C.ar    1  UNL1        0.0058
      8 C          60.9114   87.3547   11.2529 C.ar    1  UNL1        0.0371
      9 C          61.2919   87.4584    9.8057 C.ar    1  UNL1        0.1416
     10 C          62.1643   86.4094    9.1825 C.ar    1  UNL1        0.0744
     11 C          62.6563   85.2566   10.0066 C.ar    1  UNL1        0.1514
     12 O          63.5287   84.2075    9.3834 O.2     1  UNL1       -0.4212
     13 C          64.0207   83.0548   10.2075 C.ar    1  UNL1        0.3414
     14 O          64.8931   82.0057    9.5843 O.2     1  UNL1       -0.2448
     15 C          60.7428   89.9874    9.5756 C.3     1  UNL1        0.2054
     16 C          61.8822   90.4916   10.4109 C.3     1  UNL1        0.0465
     17 C          61.9416   90.1654   11.8737 C.3     1  UNL1        0.0211
     18 C          63.0809   90.6696   12.7089 C.3     1  UNL1        0.0722
     19 N          64.1609   91.5001   12.0812 N.3     1  UNL1       -0.2727
     20 C          64.1015   91.8263   10.6184 C.3     1  UNL1        0.0722
     21 C          62.9622   91.3221    9.7832 C.3     1  UNL1        0.0211
     22 C          65.3003   92.0043   12.9165 C.3     1  UNL1        0.0723
     23 C          66.3287   92.9135   12.3118 C.3     1  UNL1        0.0231
     24 C          67.4802   92.3367   11.5427 C.3     1  UNL1        0.0737
     25 C          67.5747   92.5506   10.0610 C.3     1  UNL1        0.3186
     26 F          66.7570   93.6229    9.4043 F       1  UNL1       -0.1984
     27 F          68.4870   91.6920    9.2361 F       1  UNL1       -0.1984
@<TRIPOS>BOND
     1     2     3    1
     2     3     4   ar
     3     4     5    1
     4     4     6   ar
     5     6     7   ar
     6     7     8   ar
     7     8     9   ar
     8     9     1    1
     9     1    15    1
    10    15    16    1
    11    16    17    1
    12    17    18    1
    13    18    19    1
    14    19    22    1
    15    22    23    1
    16    23    24    1
    17    24    25    1
    18    25    26    1
    19    25    27    1
    20    19    20    1
    21    20    21    1
    22     9    10   ar
    23    10    11   ar
    24    11    12   ar
    25    12    13   ar
    26    13    14    2
    27    13     3   ar
    28    11     6   ar
    29    21    16    1
@<TRIPOS>MOLECULE
*****
 27 29 0 0 0
SMALL
GASTEIGER

@<TRIPOS>ATOM
      1 O          59.6550   89.4210    8.2793 O.3     1  UNL1       -0.4754
      2 C          64.1383   84.8122   13.6094 C.3     1  UNL1        0.0375
      3 C          63.3994   85.8225   12.7827 C.ar    1  UNL1        0.0503
      4 C          62.6105   85.3799   11.5862 C.ar    1  UNL1       -0.0167
      5 C          62.5604   83.9271   11.2163 C.3     1  UNL1        0.0310
      6 C          61.8716   86.3902   10.7594 C.ar    1  UNL1        0.0308
      7 C          61.0827   85.9476    9.5629 C.ar    1  UNL1        0.0058
      8 C          60.3438   86.9579    8.7362 C.ar    1  UNL1        0.0371
      9 C          60.3939   88.4107    9.1060 C.ar    1  UNL1        0.1416
     10 C          61.1828   88.8533   10.3025 C.ar    1  UNL1        0.0744
     11 C          61.9216   87.8430   11.1292 C.ar    1  UNL1        0.1514
     12 O          62.7106   88.2856   12.3258 O.2     1  UNL1       -0.4212
     13 C          63.4495   87.2754   13.1525 C.ar    1  UNL1        0.3414
     14 O          64.2384   87.7179   14.3491 O.2     1  UNL1       -0.2448
     15 C          59.3597   89.1377    6.8362 C.3     1  UNL1        0.2054
     16 C          59.5147   90.2226    5.8119 C.3     1  UNL1        0.0465
     17 C          60.8760   90.5675    5.2848 C.3     1  UNL1        0.0211
     18 C          61.0309   91.6523    4.2606 C.3     1  UNL1        0.0722
     19 N          59.8245   92.3922    3.7634 N.3     1  UNL1       -0.2727
     20 C          58.4632   92.0473    4.2905 C.3     1  UNL1        0.0722
     21 C          58.3083   90.9625    5.3147 C.3     1  UNL1        0.0211
     22 C          59.9795   93.4771    2.7391 C.3     1  UNL1        0.0723
     23 C          60.1002   93.1249    1.2861 C.3     1  UNL1        0.0231
     24 C          61.4152   92.6606    0.7336 C.3     1  UNL1        0.0737
     25 C          62.6929   93.0330    1.4256 C.3     1  UNL1        0.3186
     26 F          63.0471   94.4776    1.6198 F       1  UNL1       -0.1984
     27 F          63.6164   91.9609    1.9232 F       1  UNL1       -0.1984
@<TRIPOS>BOND
     1     2     3    1
     2     3     4   ar
     3     4     5    1
     4     4     6   ar
     5     6     7   ar
     6     7     8   ar
     7     8     9   ar
     8     9     1    1
     9     1    15    1
    10    15    16    1
    11    16    17    1
    12    17    18    1
    13    18    19    1
    14    19    22    1
    15    22    23    1
    16    23    24    1
    17    24    25    1
    18    25    26    1
    19    25    27    1
    20    19    20    1
    21    20    21    1
    22     9    10   ar
    23    10    11   ar
    24    11    12   ar
    25    12    13   ar
    26    13    14    2
    27    13     3   ar
    28    11     6   ar
    29    21    16    1
