@<TRIPOS>MOLECULE
*****
 42 47 0 0 0
SMALL
GASTEIGER

@<TRIPOS>ATOM
      1 C          59.7758   90.1327    6.1263 C.2     1  UNL1        0.2495
      2 O          58.3952   90.3500    5.5814 O.2     1  UNL1       -0.2698
      3 N          60.9533   90.7903    5.4699 N.am    1  UNL1       -0.2804
      4 H          61.8594   90.6477    5.8275 H       1  UNL1        0.1552
      5 C          60.5877   86.6333   10.9321 C.3     1  UNL1        0.0317
      6 C          60.3847   87.5082    9.7307 C.ar    1  UNL1       -0.0142
      7 C          59.5593   87.0191    8.5776 C.ar    1  UNL1       -0.0035
      8 C          59.3563   87.8939    7.3762 C.ar    1  UNL1        0.0042
      9 C          59.9788   89.2579    7.3278 C.ar    1  UNL1        0.0543
     10 C          60.8042   89.7469    8.4808 C.ar    1  UNL1        0.0124
     11 C          61.0071   88.8721    9.6822 C.ar    1  UNL1        0.0382
     12 C          61.8325   89.3611   10.8353 C.1     1  UNL1       -0.0585
     13 C          62.6579   89.8502   11.9884 C.1     1  UNL1       -0.0388
     14 C          63.4833   90.3392   13.1415 C.ar    1  UNL1        0.1451
     15 C          63.4285   89.8203   14.5478 C.ar    1  UNL1        0.1281
     16 N          64.4198   90.5934   15.3661 N.ar    1  UNL1       -0.2228
     17 C          65.0872   91.5902   14.4655 C.ar    1  UNL1        0.1646
     18 C          66.1472   92.6206   14.7198 C.ar    1  UNL1        0.0405
     19 C          66.6284   93.4939   13.5992 C.ar    1  UNL1        0.0256
     20 C          66.0496   93.3368   12.2244 C.ar    1  UNL1        0.1207
     21 N          64.9896   92.3064   11.9700 N.ar    1  UNL1       -0.1616
     22 N          64.5084   91.4331   13.0906 N.ar    1  UNL1       -0.2030
     23 C          60.7504   91.6651    4.2684 C.ar    1  UNL1        0.0502
     24 C          59.3943   92.2361    3.9769 C.ar    1  UNL1        0.0144
     25 C          59.1914   93.1110    2.7754 C.ar    1  UNL1       -0.0020
     26 C          60.3445   93.4149    1.8655 C.ar    1  UNL1       -0.0100
     27 C          61.7006   92.8439    2.1570 C.ar    1  UNL1       -0.0239
     28 C          61.9035   91.9690    3.3585 C.ar    1  UNL1        0.0101
     29 C          62.8538   93.1478    1.2472 C.3     1  UNL1        0.0221
     30 C          63.3743   93.5390   -0.1040 C.3     1  UNL1        0.0047
     31 C          64.3308   93.2827    1.0227 C.3     1  UNL1        0.0047
     32 C          60.1415   94.2897    0.6641 C.3     1  UNL1        0.0989
     33 N          59.4431   93.7488   -0.5481 N.3     1  UNL1       -0.2665
     34 C          60.1304   93.7691   -1.8813 C.3     1  UNL1        0.0899
     35 C          59.4319   93.2282   -3.0934 C.3     1  UNL1        0.0897
     36 N          58.0462   92.6669   -2.9726 N.3     1  UNL1       -0.2682
     37 C          57.3589   92.6466   -1.6395 C.3     1  UNL1        0.0897
     38 C          58.0573   93.1875   -0.4272 C.3     1  UNL1        0.0899
     39 C          57.3477   92.1260   -4.1849 C.3     1  UNL1        0.1043
     40 C          56.0260   91.4312   -4.0414 C.3     1  UNL1        0.1544
     41 O          55.9601   90.0645   -3.4270 O.3     1  UNL1       -0.3805
     42 H          56.4158   89.4294   -4.0014 H       1  UNL1        0.2105
@<TRIPOS>BOND
     1     5     6    1
     2     6     7   ar
     3     7     8   ar
     4     8     9   ar
     5     9     1    1
     6     1     2    2
     7     1     3   am
     8     3    23    1
     9    23    24   ar
    10    24    25   ar
    11    25    26   ar
    12    26    32    1
    13    32    33    1
    14    33    34    1
    15    34    35    1
    16    35    36    1
    17    36    39    1
    18    39    40    1
    19    40    41    1
    20    36    37    1
    21    37    38    1
    22    26    27   ar
    23    27    29    1
    24    29    30    1
    25    30    31    1
    26    27    28   ar
    27     9    10   ar
    28    10    11   ar
    29    11    12    1
    30    12    13    3
    31    13    14    1
    32    14    15   ar
    33    15    16   ar
    34    16    17   ar
    35    17    18   ar
    36    18    19   ar
    37    19    20   ar
    38    20    21   ar
    39    21    22   ar
    40    11     6   ar
    41    22    14   ar
    42    28    23   ar
    43    22    17   ar
    44    38    33    1
    45    31    29    1
    46     3     4    1
    47    41    42    1
@<TRIPOS>MOLECULE
*****
 42 47 0 0 0
SMALL
GASTEIGER

@<TRIPOS>ATOM
      1 C          59.7111   90.6236    5.4618 C.2     1  UNL1        0.2495
      2 O          58.3675   90.8626    4.8392 O.2     1  UNL1       -0.2698
      3 N          60.9473   91.1693    4.8107 N.am    1  UNL1       -0.2804
      4 H          61.8291   91.0124    5.2194 H       1  UNL1        0.1552
      5 C          60.1405   87.4846   10.5572 C.3     1  UNL1        0.0317
      6 C          60.0332   88.2694    9.2834 C.ar    1  UNL1       -0.0142
      7 C          59.1373   87.7896    8.1801 C.ar    1  UNL1       -0.0035
      8 C          59.0299   88.5742    6.9063 C.ar    1  UNL1        0.0042
      9 C          59.8184   89.8389    6.7356 C.ar    1  UNL1        0.0543
     10 C          60.7143   90.3187    7.8389 C.ar    1  UNL1        0.0124
     11 C          60.8216   89.5339    9.1127 C.ar    1  UNL1        0.0382
     12 C          61.7175   90.0137   10.2160 C.1     1  UNL1       -0.0585
     13 C          62.6134   90.4936   11.3193 C.1     1  UNL1       -0.0388
     14 C          63.5093   90.9734   12.4226 C.ar    1  UNL1        0.1451
     15 C          64.6869   91.8894   12.2667 C.ar    1  UNL1        0.1281
     16 N          65.2902   92.1035   13.6232 N.ar    1  UNL1       -0.2228
     17 C          64.4855   91.3199   14.6174 C.ar    1  UNL1        0.1646
     18 C          64.6128   91.1521   16.1025 C.ar    1  UNL1        0.0405
     19 C          63.6395   90.2858   16.8456 C.ar    1  UNL1        0.0256
     20 C          62.5388   89.5873   16.1035 C.ar    1  UNL1        0.1207
     21 N          62.4115   89.7551   14.6184 N.ar    1  UNL1       -0.1616
     22 N          63.3849   90.6214   13.8754 N.ar    1  UNL1       -0.2030
     23 C          60.8400   91.9540    3.5369 C.ar    1  UNL1        0.0502
     24 C          59.4959   92.3975    3.0401 C.ar    1  UNL1        0.0144
     25 C          59.3886   93.1823    1.7663 C.ar    1  UNL1       -0.0020
     26 C          60.6254   93.5236    0.9892 C.ar    1  UNL1       -0.0100
     27 C          61.9695   93.0801    1.4858 C.ar    1  UNL1       -0.0239
     28 C          62.0767   92.2953    2.7597 C.ar    1  UNL1        0.0101
     29 C          63.2062   93.4213    0.7088 C.3     1  UNL1        0.0221
     30 C          64.6626   93.7792    0.6763 C.3     1  UNL1        0.0047
     31 C          63.8921   93.6545   -0.6047 C.3     1  UNL1        0.0047
     32 C          60.5180   94.3083   -0.2847 C.3     1  UNL1        0.0989
     33 N          59.1689   94.6750   -0.8282 N.3     1  UNL1       -0.2665
     34 C          58.6362   96.0643   -0.6385 C.3     1  UNL1        0.0899
     35 C          57.2871   96.4309   -1.1821 C.3     1  UNL1        0.0897
     36 N          56.4708   95.4082   -1.9154 N.3     1  UNL1       -0.2682
     37 C          57.0035   94.0189   -2.1051 C.3     1  UNL1        0.0897
     38 C          58.3526   93.6522   -1.5615 C.3     1  UNL1        0.0899
     39 C          55.1216   95.7749   -2.4590 C.3     1  UNL1        0.1043
     40 C          53.9134   95.7126   -1.5721 C.3     1  UNL1        0.1544
     41 O          53.6145   96.8422   -0.6316 O.3     1  UNL1       -0.3805
     42 H          54.3091   96.8932    0.0435 H       1  UNL1        0.2105
@<TRIPOS>BOND
     1     5     6    1
     2     6     7   ar
     3     7     8   ar
     4     8     9   ar
     5     9     1    1
     6     1     2    2
     7     1     3   am
     8     3    23    1
     9    23    24   ar
    10    24    25   ar
    11    25    26   ar
    12    26    32    1
    13    32    33    1
    14    33    34    1
    15    34    35    1
    16    35    36    1
    17    36    39    1
    18    39    40    1
    19    40    41    1
    20    36    37    1
    21    37    38    1
    22    26    27   ar
    23    27    29    1
    24    29    30    1
    25    30    31    1
    26    27    28   ar
    27     9    10   ar
    28    10    11   ar
    29    11    12    1
    30    12    13    3
    31    13    14    1
    32    14    15   ar
    33    15    16   ar
    34    16    17   ar
    35    17    18   ar
    36    18    19   ar
    37    19    20   ar
    38    20    21   ar
    39    21    22   ar
    40    11     6   ar
    41    22    14   ar
    42    28    23   ar
    43    22    17   ar
    44    38    33    1
    45    31    29    1
    46     3     4    1
    47    41    42    1
@<TRIPOS>MOLECULE
*****
 42 47 0 0 0
SMALL
GASTEIGER

@<TRIPOS>ATOM
      1 C          59.8700   91.0007    5.4300 C.2     1  UNL1        0.2495
      2 O          58.6388   91.7965    5.1122 O.2     1  UNL1       -0.2698
      3 N          61.1066   91.1676    4.5975 N.am    1  UNL1       -0.2804
      4 H          61.9146   90.6453    4.8061 H       1  UNL1        0.1552
      5 C          59.8483   87.1500   10.0312 C.3     1  UNL1        0.0317
      6 C          59.8538   88.1127    8.8809 C.ar    1  UNL1       -0.0142
      7 C          59.0306   87.8270    7.6599 C.ar    1  UNL1       -0.0035
      8 C          59.0360   88.7896    6.5096 C.ar    1  UNL1        0.0042
      9 C          59.8646   90.0381    6.5803 C.ar    1  UNL1        0.0543
     10 C          60.6877   90.3237    7.8013 C.ar    1  UNL1        0.0124
     11 C          60.6823   89.3611    8.9516 C.ar    1  UNL1        0.0382
     12 C          61.5054   89.6467   10.1726 C.1     1  UNL1       -0.0585
     13 C          62.3286   89.9325   11.3935 C.1     1  UNL1       -0.0388
     14 C          63.1518   90.2182   12.6146 C.ar    1  UNL1        0.1451
     15 C          63.0125   89.5468   13.9487 C.ar    1  UNL1        0.1281
     16 N          64.0333   90.1391   14.8744 N.ar    1  UNL1       -0.2228
     17 C          64.8035   91.1765   14.1124 C.ar    1  UNL1        0.1646
     18 C          65.9306   92.0830   14.5100 C.ar    1  UNL1        0.0405
     19 C          66.5128   93.0383   13.5108 C.ar    1  UNL1        0.0256
     20 C          65.9679   93.0871   12.1141 C.ar    1  UNL1        0.1207
     21 N          64.8409   92.1807   11.7166 N.ar    1  UNL1       -0.1616
     22 N          64.2587   91.2254   12.7158 N.ar    1  UNL1       -0.2030
     23 C          61.1120   92.1303    3.4472 C.ar    1  UNL1        0.0502
     24 C          59.8187   92.5481    2.8127 C.ar    1  UNL1        0.0144
     25 C          59.8241   93.5108    1.6624 C.ar    1  UNL1       -0.0020
     26 C          61.1230   94.0557    1.1466 C.ar    1  UNL1       -0.0100
     27 C          62.4164   93.6380    1.7810 C.ar    1  UNL1       -0.0239
     28 C          62.4109   92.6752    2.9314 C.ar    1  UNL1        0.0101
     29 C          63.7152   94.1828    1.2653 C.3     1  UNL1        0.0221
     30 C          64.7984   95.2195    1.3101 C.3     1  UNL1        0.0047
     31 C          64.8819   94.0896    0.3270 C.3     1  UNL1        0.0047
     32 C          61.1284   95.0184   -0.0037 C.3     1  UNL1        0.0989
     33 N          61.9006   94.6954   -1.2484 N.3     1  UNL1       -0.2665
     34 C          61.9542   93.2836   -1.7526 C.3     1  UNL1        0.0899
     35 C          62.7264   92.9607   -2.9973 C.3     1  UNL1        0.0897
     36 N          63.4451   94.0493   -3.7378 N.3     1  UNL1       -0.2682
     37 C          63.3915   95.4610   -3.2336 C.3     1  UNL1        0.0897
     38 C          62.6193   95.7841   -1.9889 C.3     1  UNL1        0.0899
     39 C          64.2173   93.7263   -4.9826 C.3     1  UNL1        0.1043
     40 C          64.3639   92.3006   -5.4255 C.3     1  UNL1        0.1544
     41 O          65.5578   91.8852   -6.2330 O.3     1  UNL1       -0.3805
     42 H          65.5306   92.3222   -7.0985 H       1  UNL1        0.2105
@<TRIPOS>BOND
     1     5     6    1
     2     6     7   ar
     3     7     8   ar
     4     8     9   ar
     5     9     1    1
     6     1     2    2
     7     1     3   am
     8     3    23    1
     9    23    24   ar
    10    24    25   ar
    11    25    26   ar
    12    26    32    1
    13    32    33    1
    14    33    34    1
    15    34    35    1
    16    35    36    1
    17    36    39    1
    18    39    40    1
    19    40    41    1
    20    36    37    1
    21    37    38    1
    22    26    27   ar
    23    27    29    1
    24    29    30    1
    25    30    31    1
    26    27    28   ar
    27     9    10   ar
    28    10    11   ar
    29    11    12    1
    30    12    13    3
    31    13    14    1
    32    14    15   ar
    33    15    16   ar
    34    16    17   ar
    35    17    18   ar
    36    18    19   ar
    37    19    20   ar
    38    20    21   ar
    39    21    22   ar
    40    11     6   ar
    41    22    14   ar
    42    28    23   ar
    43    22    17   ar
    44    38    33    1
    45    31    29    1
    46     3     4    1
    47    41    42    1
@<TRIPOS>MOLECULE
*****
 42 47 0 0 0
SMALL
GASTEIGER

@<TRIPOS>ATOM
      1 C          60.1083   88.8929    7.5162 C.2     1  UNL1        0.2495
      2 O          59.6940   87.4519    7.4705 O.2     1  UNL1       -0.2698
      3 N          60.9984   89.3828    8.6197 N.am    1  UNL1       -0.2804
      4 H          61.2702   90.3285    8.6497 H       1  UNL1        0.1552
      5 C          58.2047   92.6971    3.2848 C.3     1  UNL1        0.0317
      6 C          58.6806   91.7460    4.3426 C.ar    1  UNL1       -0.0142
      7 C          57.6983   91.1297    5.2940 C.ar    1  UNL1       -0.0035
      8 C          58.1741   90.1787    6.3518 C.ar    1  UNL1        0.0042
      9 C          59.6324   89.8439    6.4584 C.ar    1  UNL1        0.0543
     10 C          60.6148   90.4602    5.5070 C.ar    1  UNL1        0.0124
     11 C          60.1389   91.4112    4.4492 C.ar    1  UNL1        0.0382
     12 C          61.1213   92.0276    3.4978 C.1     1  UNL1       -0.0585
     13 C          62.1037   92.6439    2.5465 C.1     1  UNL1       -0.0388
     14 C          63.0861   93.2602    1.5951 C.ar    1  UNL1        0.1451
     15 C          64.4480   93.7803    1.9482 C.ar    1  UNL1        0.1281
     16 N          65.0826   94.3062    0.6949 N.ar    1  UNL1       -0.2228
     17 C          64.1130   94.1110   -0.4328 C.ar    1  UNL1        0.1646
     18 C          64.1942   94.4384   -1.8943 C.ar    1  UNL1        0.0405
     19 C          63.0415   94.1193   -2.7995 C.ar    1  UNL1        0.0256
     20 C          61.8076   93.4729   -2.2432 C.ar    1  UNL1        0.1207
     21 N          61.7263   93.1455   -0.7816 N.ar    1  UNL1       -0.1616
     22 N          62.8790   93.4645    0.1236 N.ar    1  UNL1       -0.2030
     23 C          61.4743   88.4317    9.6775 C.ar    1  UNL1        0.0502
     24 C          61.1378   86.9732    9.5811 C.ar    1  UNL1        0.0144
     25 C          61.6137   86.0221   10.6390 C.ar    1  UNL1       -0.0020
     26 C          62.4261   86.5297   11.7933 C.ar    1  UNL1       -0.0100
     27 C          62.7626   87.9882   11.8898 C.ar    1  UNL1       -0.0239
     28 C          62.2867   88.9393   10.8318 C.ar    1  UNL1        0.0101
     29 C          63.5750   88.4959   13.0440 C.3     1  UNL1        0.0221
     30 C          64.2683   89.6245   13.7479 C.3     1  UNL1        0.0047
     31 C          64.2888   88.2463   14.3395 C.3     1  UNL1        0.0047
     32 C          62.9020   85.5786   12.8511 C.3     1  UNL1        0.0989
     33 N          62.8798   84.1007   12.5959 N.3     1  UNL1       -0.2665
     34 C          62.3807   83.1639   13.6558 C.3     1  UNL1        0.0899
     35 C          62.3585   81.6860   13.4005 C.3     1  UNL1        0.0897
     36 N          62.8353   81.1449   12.0853 N.3     1  UNL1       -0.2682
     37 C          63.3343   82.0816   11.0253 C.3     1  UNL1        0.0897
     38 C          63.3566   83.5595   11.2806 C.3     1  UNL1        0.0899
     39 C          62.8130   79.6668   11.8300 C.3     1  UNL1        0.1043
     40 C          62.8398   79.1483   10.4227 C.3     1  UNL1        0.1544
     41 O          62.8502   77.6701   10.1682 O.3     1  UNL1       -0.3805
     42 H          63.6806   77.2914   10.4966 H       1  UNL1        0.2105
@<TRIPOS>BOND
     1     5     6    1
     2     6     7   ar
     3     7     8   ar
     4     8     9   ar
     5     9     1    1
     6     1     2    2
     7     1     3   am
     8     3    23    1
     9    23    24   ar
    10    24    25   ar
    11    25    26   ar
    12    26    32    1
    13    32    33    1
    14    33    34    1
    15    34    35    1
    16    35    36    1
    17    36    39    1
    18    39    40    1
    19    40    41    1
    20    36    37    1
    21    37    38    1
    22    26    27   ar
    23    27    29    1
    24    29    30    1
    25    30    31    1
    26    27    28   ar
    27     9    10   ar
    28    10    11   ar
    29    11    12    1
    30    12    13    3
    31    13    14    1
    32    14    15   ar
    33    15    16   ar
    34    16    17   ar
    35    17    18   ar
    36    18    19   ar
    37    19    20   ar
    38    20    21   ar
    39    21    22   ar
    40    11     6   ar
    41    22    14   ar
    42    28    23   ar
    43    22    17   ar
    44    38    33    1
    45    31    29    1
    46     3     4    1
    47    41    42    1
@<TRIPOS>MOLECULE
*****
 42 47 0 0 0
SMALL
GASTEIGER

@<TRIPOS>ATOM
      1 C          60.0978   88.8156    7.9245 C.2     1  UNL1        0.2495
      2 O          60.5505   87.4206    7.6094 O.2     1  UNL1       -0.2698
      3 N          60.4794   89.4515    9.2283 N.am    1  UNL1       -0.2804
      4 H          60.1823   90.3670    9.4351 H       1  UNL1        0.1552
      5 C          56.7608   91.8519    3.9690 C.3     1  UNL1        0.0317
      6 C          57.5951   91.0929    4.9579 C.ar    1  UNL1       -0.0142
      7 C          56.9424   90.1392    5.9142 C.ar    1  UNL1       -0.0035
      8 C          57.7765   89.3802    6.9030 C.ar    1  UNL1        0.0042
      9 C          59.2636   89.5747    6.9356 C.ar    1  UNL1        0.0543
     10 C          59.9163   90.5283    5.9793 C.ar    1  UNL1        0.0124
     11 C          59.0820   91.2874    4.9905 C.ar    1  UNL1        0.0382
     12 C          59.7347   92.2411    4.0341 C.1     1  UNL1       -0.0585
     13 C          60.3874   93.1947    3.0777 C.1     1  UNL1       -0.0388
     14 C          61.0401   94.1483    2.1214 C.ar    1  UNL1        0.1451
     15 C          60.4084   95.3728    1.5284 C.ar    1  UNL1        0.1281
     16 N          61.4170   96.0261    0.6307 N.ar    1  UNL1       -0.2228
     17 C          62.6720   95.2055    0.6690 C.ar    1  UNL1        0.1646
     18 C          63.9969   95.3651   -0.0161 C.ar    1  UNL1        0.0405
     19 C          65.0887   94.3641    0.2202 C.ar    1  UNL1        0.0256
     20 C          64.8558   93.2036    1.1415 C.ar    1  UNL1        0.1207
     21 N          63.5310   93.0440    1.8266 N.ar    1  UNL1       -0.1616
     22 N          62.4391   94.0449    1.5903 N.ar    1  UNL1       -0.2030
     23 C          61.3136   88.6924   10.2172 C.ar    1  UNL1        0.0502
     24 C          61.3041   87.1925   10.2116 C.ar    1  UNL1        0.0144
     25 C          62.1384   86.4335   11.2004 C.ar    1  UNL1       -0.0020
     26 C          62.9822   87.1743   12.1949 C.ar    1  UNL1       -0.0100
     27 C          62.9918   88.6743   12.2006 C.ar    1  UNL1       -0.0239
     28 C          62.1575   89.4333   11.2117 C.ar    1  UNL1        0.0101
     29 C          63.8355   89.4152   13.1950 C.3     1  UNL1        0.0221
     30 C          64.6012   90.6432   13.5899 C.3     1  UNL1        0.0047
     31 C          64.5313   89.4706   14.5228 C.3     1  UNL1        0.0047
     32 C          63.8165   86.4153   13.1838 C.3     1  UNL1        0.0989
     33 N          63.5836   84.9481   13.3916 N.3     1  UNL1       -0.2665
     34 C          62.7726   84.4758   14.5617 C.3     1  UNL1        0.0899
     35 C          62.5398   83.0086   14.7695 C.3     1  UNL1        0.0897
     36 N          63.1180   82.0138   13.8072 N.3     1  UNL1       -0.2682
     37 C          63.9291   82.4861   12.6371 C.3     1  UNL1        0.0897
     38 C          64.1619   83.9533   12.4293 C.3     1  UNL1        0.0899
     39 C          62.8852   80.5465   14.0150 C.3     1  UNL1        0.1043
     40 C          61.5417   79.9505   13.7156 C.3     1  UNL1        0.1544
     41 O          60.2940   80.6458   14.1737 O.3     1  UNL1       -0.3805
     42 H          60.2601   80.6438   15.1431 H       1  UNL1        0.2105
@<TRIPOS>BOND
     1     5     6    1
     2     6     7   ar
     3     7     8   ar
     4     8     9   ar
     5     9     1    1
     6     1     2    2
     7     1     3   am
     8     3    23    1
     9    23    24   ar
    10    24    25   ar
    11    25    26   ar
    12    26    32    1
    13    32    33    1
    14    33    34    1
    15    34    35    1
    16    35    36    1
    17    36    39    1
    18    39    40    1
    19    40    41    1
    20    36    37    1
    21    37    38    1
    22    26    27   ar
    23    27    29    1
    24    29    30    1
    25    30    31    1
    26    27    28   ar
    27     9    10   ar
    28    10    11   ar
    29    11    12    1
    30    12    13    3
    31    13    14    1
    32    14    15   ar
    33    15    16   ar
    34    16    17   ar
    35    17    18   ar
    36    18    19   ar
    37    19    20   ar
    38    20    21   ar
    39    21    22   ar
    40    11     6   ar
    41    22    14   ar
    42    28    23   ar
    43    22    17   ar
    44    38    33    1
    45    31    29    1
    46     3     4    1
    47    41    42    1
