@<TRIPOS>MOLECULE
*****
 18 19 0 0 0
SMALL
GASTEIGER

@<TRIPOS>ATOM
      1 C          63.5164   83.7338   13.4811 C.ar    1  UNL1        0.0608
      2 C          63.7850   82.6657   14.4994 C.ar    1  UNL1        0.1071
      3 N          63.5063   81.2289   14.1707 N.ar    1  UNL1       -0.2417
      4 C          62.9590   80.8602   12.8237 C.ar    1  UNL1        0.0989
      5 C          62.6904   81.9283   11.8054 C.ar    1  UNL1        0.0213
      6 C          62.9691   83.3651   12.1341 C.ar    1  UNL1        0.0107
      7 C          62.7004   84.4332   11.1157 C.ar    1  UNL1        0.0007
      8 C          61.7793   85.5699   11.4462 C.ar    1  UNL1        0.0000
      9 C          61.5106   86.6380   10.4279 C.ar    1  UNL1        0.0000
     10 C          62.1631   86.5693    9.0790 C.ar    1  UNL1        0.0000
     11 C          63.0843   85.4326    8.7484 C.ar    1  UNL1        0.0000
     12 C          63.3529   84.3645    9.7668 C.ar    1  UNL1        0.0000
     13 C          64.0737   86.6073   14.1385 C.1     1  UNL1       -0.0689
     14 C          63.7950   85.1705   13.8098 C.1     1  UNL1       -0.0614
     15 N          63.5556   88.7381   15.5318 N.3     1  UNL1       -0.3102
     16 C          64.3524   88.0441   14.4672 C.3     1  UNL1        0.1432
     17 H          63.8762   89.7021   15.6223 H       1  UNL1        0.1198
     18 H          63.6806   88.2532   16.4204 H       1  UNL1        0.1198
@<TRIPOS>BOND
     1    15    16    1
     2    16    13    1
     3    13    14    3
     4    14     1    1
     5     1     2   ar
     6     2     3   ar
     7     3     4   ar
     8     4     5   ar
     9     5     6   ar
    10     6     7    1
    11     7     8   ar
    12     8     9   ar
    13     9    10   ar
    14    10    11   ar
    15    11    12   ar
    16     6     1   ar
    17    12     7   ar
    18    15    17    1
    19    15    18    1
@<TRIPOS>MOLECULE
*****
 18 19 0 0 0
SMALL
GASTEIGER

@<TRIPOS>ATOM
      1 C          61.3359   88.0704    9.8812 C.ar    1  UNL1        0.0608
      2 C          60.5046   89.1203    9.2055 C.ar    1  UNL1        0.1071
      3 N          59.6305   88.7520    8.0435 N.ar    1  UNL1       -0.2417
      4 C          59.5877   87.3337    7.5572 C.ar    1  UNL1        0.0989
      5 C          60.4190   86.2838    8.2328 C.ar    1  UNL1        0.0213
      6 C          61.2931   86.6521    9.3948 C.ar    1  UNL1        0.0107
      7 C          62.1244   85.6021   10.0704 C.ar    1  UNL1        0.0007
      8 C          61.9823   85.3670   11.5451 C.ar    1  UNL1        0.0000
      9 C          62.8135   84.3170   12.2207 C.ar    1  UNL1        0.0000
     10 C          63.7870   83.5021   11.4217 C.ar    1  UNL1        0.0000
     11 C          63.9292   83.7372    9.9471 C.ar    1  UNL1        0.0000
     12 C          63.0978   84.7872    9.2715 C.ar    1  UNL1        0.0000
     13 C          63.0841   88.8071   12.2052 C.1     1  UNL1       -0.0689
     14 C          62.2100   88.4387   11.0432 C.1     1  UNL1       -0.0614
     15 N          64.0840   88.2438   14.5360 N.3     1  UNL1       -0.3102
     16 C          63.9582   89.1754   13.3672 C.3     1  UNL1        0.1432
     17 H          64.7130   88.6502   15.2285 H       1  UNL1        0.1198
     18 H          64.4589   87.3497   14.2194 H       1  UNL1        0.1198
@<TRIPOS>BOND
     1    15    16    1
     2    16    13    1
     3    13    14    3
     4    14     1    1
     5     1     2   ar
     6     2     3   ar
     7     3     4   ar
     8     4     5   ar
     9     5     6   ar
    10     6     7    1
    11     7     8   ar
    12     8     9   ar
    13     9    10   ar
    14    10    11   ar
    15    11    12   ar
    16     6     1   ar
    17    12     7   ar
    18    15    17    1
    19    15    18    1
@<TRIPOS>MOLECULE
*****
 18 19 0 0 0
SMALL
GASTEIGER

@<TRIPOS>ATOM
      1 C          64.9973   91.6158   12.7028 C.ar    1  UNL1        0.0608
      2 C          63.9589   90.7390   13.3374 C.ar    1  UNL1        0.1071
      3 N          62.7689   90.2899   12.5422 N.ar    1  UNL1       -0.2417
      4 C          62.6174   90.7177   11.1125 C.ar    1  UNL1        0.0989
      5 C          63.6558   91.5945   10.4780 C.ar    1  UNL1        0.0213
      6 C          64.8458   92.0436   11.2732 C.ar    1  UNL1        0.0107
      7 C          65.8843   92.9205   10.6386 C.ar    1  UNL1        0.0007
      8 C          65.7056   94.4098   10.6314 C.ar    1  UNL1        0.0000
      9 C          66.7440   95.2867    9.9969 C.ar    1  UNL1        0.0000
     10 C          67.9612   94.6744    9.3694 C.ar    1  UNL1        0.0000
     11 C          68.1398   93.1851    9.3765 C.ar    1  UNL1        0.0000
     12 C          67.1013   92.3081   10.0111 C.ar    1  UNL1        0.0000
     13 C          67.3773   92.5140   14.2931 C.1     1  UNL1       -0.0689
     14 C          66.1873   92.0649   13.4980 C.1     1  UNL1       -0.0614
     15 N          68.4303   94.0849   16.0745 N.3     1  UNL1       -0.3102
     16 C          68.5673   92.9631   15.0883 C.3     1  UNL1        0.1432
     17 H          69.3309   94.2564   16.5216 H       1  UNL1        0.1198
     18 H          67.7415   93.8324   16.7832 H       1  UNL1        0.1198
@<TRIPOS>BOND
     1    15    16    1
     2    16    13    1
     3    13    14    3
     4    14     1    1
     5     1     2   ar
     6     2     3   ar
     7     3     4   ar
     8     4     5   ar
     9     5     6   ar
    10     6     7    1
    11     7     8   ar
    12     8     9   ar
    13     9    10   ar
    14    10    11   ar
    15    11    12   ar
    16     6     1   ar
    17    12     7   ar
    18    15    17    1
    19    15    18    1
@<TRIPOS>MOLECULE
*****
 18 19 0 0 0
SMALL
GASTEIGER

@<TRIPOS>ATOM
      1 C          63.5389   85.7691   13.3170 C.ar    1  UNL1        0.0608
      2 C          64.0793   85.2847   14.6297 C.ar    1  UNL1        0.1071
      3 N          64.1119   83.8156   14.9311 N.ar    1  UNL1       -0.2417
      4 C          63.6040   82.8311   13.9199 C.ar    1  UNL1        0.0989
      5 C          63.0636   83.3155   12.6072 C.ar    1  UNL1        0.0213
      6 C          63.0311   84.7845   12.3058 C.ar    1  UNL1        0.0107
      7 C          62.4906   85.2690   10.9930 C.ar    1  UNL1        0.0007
      8 C          63.1738   84.8864    9.7136 C.ar    1  UNL1        0.0000
      9 C          62.6334   85.3708    8.4008 C.ar    1  UNL1        0.0000
     10 C          61.4098   86.2378    8.3675 C.ar    1  UNL1        0.0000
     11 C          60.7266   86.6204    9.6469 C.ar    1  UNL1        0.0000
     12 C          61.2670   86.1360   10.9596 C.ar    1  UNL1        0.0000
     13 C          63.4738   88.7072   12.7141 C.1     1  UNL1       -0.0689
     14 C          63.5063   87.2382   13.0155 C.1     1  UNL1       -0.0614
     15 N          63.3617   91.1702   13.5331 N.3     1  UNL1       -0.3102
     16 C          63.4412   90.1762   12.4126 C.3     1  UNL1        0.1432
     17 H          63.3490   92.1151   13.1492 H       1  UNL1        0.1198
     18 H          64.1726   91.0616   14.1422 H       1  UNL1        0.1198
@<TRIPOS>BOND
     1    15    16    1
     2    16    13    1
     3    13    14    3
     4    14     1    1
     5     1     2   ar
     6     2     3   ar
     7     3     4   ar
     8     4     5   ar
     9     5     6   ar
    10     6     7    1
    11     7     8   ar
    12     8     9   ar
    13     9    10   ar
    14    10    11   ar
    15    11    12   ar
    16     6     1   ar
    17    12     7   ar
    18    15    17    1
    19    15    18    1
@<TRIPOS>MOLECULE
*****
 18 19 0 0 0
SMALL
GASTEIGER

@<TRIPOS>ATOM
      1 C          62.7495   86.6595   11.6252 C.ar    1  UNL1        0.0608
      2 C          63.1538   87.4731   12.8187 C.ar    1  UNL1        0.1071
      3 N          63.1746   88.9706   12.7334 N.ar    1  UNL1       -0.2417
      4 C          62.7911   89.6543   11.4546 C.ar    1  UNL1        0.0989
      5 C          62.3868   88.8407   10.2611 C.ar    1  UNL1        0.0213
      6 C          62.3660   87.3433   10.3464 C.ar    1  UNL1        0.0107
      7 C          61.9616   86.5296    9.1528 C.ar    1  UNL1        0.0007
      8 C          62.9719   85.6671    8.4560 C.ar    1  UNL1        0.0000
      9 C          62.5676   84.8534    7.2625 C.ar    1  UNL1        0.0000
     10 C          61.1531   84.9023    6.7657 C.ar    1  UNL1        0.0000
     11 C          60.1428   85.7648    7.4625 C.ar    1  UNL1        0.0000
     12 C          60.5472   86.5785    8.6561 C.ar    1  UNL1        0.0000
     13 C          62.7079   83.6646   11.7958 C.1     1  UNL1       -0.0689
     14 C          62.7287   85.1621   11.7105 C.1     1  UNL1       -0.0614
     15 N          62.0572   81.4920   13.0632 N.3     1  UNL1       -0.3102
     16 C          62.6871   82.1672   11.8811 C.3     1  UNL1        0.1432
     17 H          62.1322   80.4803   12.9567 H       1  UNL1        0.1198
     18 H          61.0736   81.7558   13.1212 H       1  UNL1        0.1198
@<TRIPOS>BOND
     1    15    16    1
     2    16    13    1
     3    13    14    3
     4    14     1    1
     5     1     2   ar
     6     2     3   ar
     7     3     4   ar
     8     4     5   ar
     9     5     6   ar
    10     6     7    1
    11     7     8   ar
    12     8     9   ar
    13     9    10   ar
    14    10    11   ar
    15    11    12   ar
    16     6     1   ar
    17    12     7   ar
    18    15    17    1
    19    15    18    1
@<TRIPOS>MOLECULE
*****
 18 19 0 0 0
SMALL
GASTEIGER

@<TRIPOS>ATOM
      1 C          64.7083   91.5895   12.6053 C.ar    1  UNL1        0.0608
      2 C          65.4238   92.6015   11.7604 C.ar    1  UNL1        0.1071
      3 N          66.7245   93.1842   12.2283 N.ar    1  UNL1       -0.2417
      4 C          67.3095   92.7548   13.5410 C.ar    1  UNL1        0.0989
      5 C          66.5940   91.7428   14.3859 C.ar    1  UNL1        0.0213
      6 C          65.2934   91.1602   13.9180 C.ar    1  UNL1        0.0107
      7 C          64.5778   90.1482   14.7629 C.ar    1  UNL1        0.0007
      8 C          64.6735   88.6892   14.4279 C.ar    1  UNL1        0.0000
      9 C          63.9580   87.6772   15.2728 C.ar    1  UNL1        0.0000
     10 C          63.1468   88.1241   16.4528 C.ar    1  UNL1        0.0000
     11 C          63.0511   89.5831   16.7878 C.ar    1  UNL1        0.0000
     12 C          63.7667   90.5951   15.9428 C.ar    1  UNL1        0.0000
     13 C          62.1070   90.4243   11.6695 C.1     1  UNL1       -0.0689
     14 C          63.4077   91.0069   12.1374 C.1     1  UNL1       -0.0614
     15 N          60.2531   90.2227    9.8606 N.3     1  UNL1       -0.3102
     16 C          60.8064   89.8416   11.2017 C.3     1  UNL1        0.1432
     17 H          59.3697   89.7367    9.7066 H       1  UNL1        0.1198
     18 H          60.9170   89.9604    9.1319 H       1  UNL1        0.1198
@<TRIPOS>BOND
     1    15    16    1
     2    16    13    1
     3    13    14    3
     4    14     1    1
     5     1     2   ar
     6     2     3   ar
     7     3     4   ar
     8     4     5   ar
     9     5     6   ar
    10     6     7    1
    11     7     8   ar
    12     8     9   ar
    13     9    10   ar
    14    10    11   ar
    15    11    12   ar
    16     6     1   ar
    17    12     7   ar
    18    15    17    1
    19    15    18    1
@<TRIPOS>MOLECULE
*****
 18 19 0 0 0
SMALL
GASTEIGER

@<TRIPOS>ATOM
      1 C          64.5949   91.5053   12.5556 C.ar    1  UNL1        0.0608
      2 C          63.3310   90.8717   12.0546 C.ar    1  UNL1        0.1071
      3 N          62.5781   89.9097   12.9251 N.ar    1  UNL1       -0.2417
      4 C          63.0891   89.5814   14.2966 C.ar    1  UNL1        0.0989
      5 C          64.3530   90.2150   14.7976 C.ar    1  UNL1        0.0213
      6 C          65.1059   91.1769   13.9271 C.ar    1  UNL1        0.0107
      7 C          66.3699   91.8106   14.4282 C.ar    1  UNL1        0.0007
      8 C          66.3520   92.6266   15.6866 C.ar    1  UNL1        0.0000
      9 C          67.6158   93.2602   16.1877 C.ar    1  UNL1        0.0000
     10 C          68.8977   93.0778   15.4303 C.ar    1  UNL1        0.0000
     11 C          68.9156   92.2617   14.1718 C.ar    1  UNL1        0.0000
     12 C          67.6516   91.6281   13.6708 C.ar    1  UNL1        0.0000
     13 C          66.1008   93.4292   10.8146 C.1     1  UNL1       -0.0689
     14 C          65.3478   92.4672   11.6851 C.1     1  UNL1       -0.0614
     15 N          68.3115   94.1704    9.6688 N.3     1  UNL1       -0.3102
     16 C          66.8537   94.3911    9.9441 C.3     1  UNL1        0.1432
     17 H          68.6597   94.9142    9.0638 H       1  UNL1        0.1198
     18 H          68.4378   93.2696    9.2071 H       1  UNL1        0.1198
@<TRIPOS>BOND
     1    15    16    1
     2    16    13    1
     3    13    14    3
     4    14     1    1
     5     1     2   ar
     6     2     3   ar
     7     3     4   ar
     8     4     5   ar
     9     5     6   ar
    10     6     7    1
    11     7     8   ar
    12     8     9   ar
    13     9    10   ar
    14    10    11   ar
    15    11    12   ar
    16     6     1   ar
    17    12     7   ar
    18    15    17    1
    19    15    18    1
@<TRIPOS>MOLECULE
*****
 18 19 0 0 0
SMALL
GASTEIGER

@<TRIPOS>ATOM
      1 C          62.8262   87.7778   11.7608 C.ar    1  UNL1        0.0608
      2 C          63.4886   88.6594   12.7776 C.ar    1  UNL1        0.1071
      3 N          63.5367   90.1436   12.5660 N.ar    1  UNL1       -0.2417
      4 C          62.9223   90.7462   11.3374 C.ar    1  UNL1        0.0989
      5 C          62.2600   89.8647   10.3206 C.ar    1  UNL1        0.0213
      6 C          62.2119   88.3805   10.5322 C.ar    1  UNL1        0.0107
      7 C          61.5495   87.4989    9.5153 C.ar    1  UNL1        0.0007
      8 C          62.3426   86.4367    8.8132 C.ar    1  UNL1        0.0000
      9 C          61.6802   85.5552    7.7963 C.ar    1  UNL1        0.0000
     10 C          60.2248   85.7358    7.4814 C.ar    1  UNL1        0.0000
     11 C          59.4317   86.7980    8.1834 C.ar    1  UNL1        0.0000
     12 C          60.0941   87.6795    9.2004 C.ar    1  UNL1        0.0000
     13 C          62.7302   84.8094   12.1841 C.1     1  UNL1       -0.0689
     14 C          62.7782   86.2936   11.9724 C.1     1  UNL1       -0.0614
     15 N          63.2804   82.7243   13.6330 N.3     1  UNL1       -0.3102
     16 C          62.6821   83.3252   12.3958 C.3     1  UNL1        0.1432
     17 H          63.1590   81.7117   13.6122 H       1  UNL1        0.1198
     18 H          62.8141   83.1058   14.4560 H       1  UNL1        0.1198
@<TRIPOS>BOND
     1    15    16    1
     2    16    13    1
     3    13    14    3
     4    14     1    1
     5     1     2   ar
     6     2     3   ar
     7     3     4   ar
     8     4     5   ar
     9     5     6   ar
    10     6     7    1
    11     7     8   ar
    12     8     9   ar
    13     9    10   ar
    14    10    11   ar
    15    11    12   ar
    16     6     1   ar
    17    12     7   ar
    18    15    17    1
    19    15    18    1
@<TRIPOS>MOLECULE
*****
 18 19 0 0 0
SMALL
GASTEIGER

@<TRIPOS>ATOM
      1 C          66.0010   92.1558   13.9238 C.ar    1  UNL1        0.0608
      2 C          66.6674   92.7845   15.1114 C.ar    1  UNL1        0.1071
      3 N          66.0306   92.6896   16.4662 N.ar    1  UNL1       -0.2417
      4 C          64.7274   91.9659   16.6334 C.ar    1  UNL1        0.0989
      5 C          64.0611   91.3372   15.4457 C.ar    1  UNL1        0.0213
      6 C          64.6979   91.4321   14.0909 C.ar    1  UNL1        0.0107
      7 C          64.0314   90.8034   12.9032 C.ar    1  UNL1        0.0007
      8 C          63.7942   91.6109   11.6616 C.ar    1  UNL1        0.0000
      9 C          63.1278   90.9822   10.4739 C.ar    1  UNL1        0.0000
     10 C          62.6986   89.5459   10.5278 C.ar    1  UNL1        0.0000
     11 C          62.9358   88.7383   11.7694 C.ar    1  UNL1        0.0000
     12 C          63.6023   89.3671   12.9571 C.ar    1  UNL1        0.0000
     13 C          67.2747   92.3457   11.2142 C.1     1  UNL1       -0.0689
     14 C          66.6379   92.2508   12.5690 C.1     1  UNL1       -0.0614
     15 N          69.2512   93.0973    9.7048 N.3     1  UNL1       -0.3102
     16 C          67.9115   92.4407    9.8594 C.3     1  UNL1        0.1432
     17 H          69.5303   93.0734    8.7240 H       1  UNL1        0.1198
     18 H          69.9410   92.5989   10.2669 H       1  UNL1        0.1198
@<TRIPOS>BOND
     1    15    16    1
     2    16    13    1
     3    13    14    3
     4    14     1    1
     5     1     2   ar
     6     2     3   ar
     7     3     4   ar
     8     4     5   ar
     9     5     6   ar
    10     6     7    1
    11     7     8   ar
    12     8     9   ar
    13     9    10   ar
    14    10    11   ar
    15    11    12   ar
    16     6     1   ar
    17    12     7   ar
    18    15    17    1
    19    15    18    1
