@<TRIPOS>MOLECULE
*****
 59 62 0 0 0
SMALL
GASTEIGER

@<TRIPOS>ATOM
      1 C          63.9154   92.4908   10.0507 C.3     1  UNL1        0.1445
      2 C          62.8300   91.5124    9.7120 C.3     1  UNL1        0.0575
      3 C          62.5988   90.8345   11.0300 C.3     1  UNL1        0.0051
      4 C          61.8408   90.8160    8.8252 C.3     1  UNL1        0.1306
      5 C          61.1188   90.5218    7.5439 C.3     1  UNL1        0.1263
      6 C          60.1783   89.5550    7.6028 C.3     1  UNL1        0.0142
      7 C          60.7888   90.6809    6.0892 C.2     1  UNL1        0.3188
      8 O          59.7088   89.6572    5.9007 O.2     1  UNL1       -0.2500
      9 O          60.9079   91.2656    4.7130 O.3     1  UNL1       -0.4497
     10 C          61.4555   92.1749    3.6531 C.3     1  UNL1        0.1953
     11 C          62.3370   93.2515    3.0929 C.3     1  UNL1        0.1506
     12 C          61.4195   92.6788    2.0535 C.3     1  UNL1        0.0356
     13 O          62.5310   93.8991    1.7539 O.3     1  UNL1       -0.3808
     14 C          63.3998   94.3093    3.1291 C.3     1  UNL1        0.1528
     15 O          63.4055   94.7944    1.7097 O.3     1  UNL1       -0.3806
     16 C          64.4603   95.1655    3.7555 C.3     1  UNL1        0.0870
     17 C          64.9070   96.0066    2.5967 C.3     1  UNL1        0.0200
     18 N          65.3350   95.6718    4.8638 N.3     1  UNL1       -0.2705
     19 C          66.1455   96.7235    4.1659 C.3     1  UNL1        0.0897
     20 C          65.8728   95.7409    6.2624 C.3     1  UNL1        0.0722
     21 C          65.9806   95.3607    7.7094 C.3     1  UNL1        0.0184
     22 C          67.0594   96.2830    8.1947 C.3     1  UNL1        0.0015
     23 C          65.6398   94.5970    8.9547 C.3     1  UNL1        0.0307
     24 C          64.9092   93.5818    9.7829 C.3     1  UNL1        0.1134
     25 C          65.9272   94.3353   10.5866 C.3     1  UNL1        0.0318
     26 O          64.9415   93.1312   11.2132 O.3     1  UNL1       -0.3844
     27 H          61.9217   93.5026    1.1116 H       1  UNL1        0.2105
     28 H          62.7449   94.3025    1.1973 H       1  UNL1        0.2105
     29 H          65.6099   93.6405   11.6977 H       1  UNL1        0.2103
     30 C          60.6527   91.7724    2.4516 C.3     1  UNL1        0.0462
     31 C          59.6470   92.7209    1.8696 C.3     1  UNL1        0.0039
     32 O          64.1355   92.2197   11.5096 O.3     1  UNL1       -0.3278
     33 N          65.1219   92.5527   17.3406 N.2     1  UNL1       -0.2243
     34 C          65.6517   92.3946   15.9461 C.2     1  UNL1        0.2833
     35 O          64.8344   92.3847   14.6883 O.2     1  UNL1       -0.4466
     36 C          65.7693   92.2026   13.5296 C.3     1  UNL1        0.2426
     37 C          65.5306   92.1169   12.0511 C.3     1  UNL1        0.2785
     38 O          66.6868   91.9286   11.1143 O.3     1  UNL1       -0.3302
     39 C          68.0819   91.8259   11.6559 C.3     1  UNL1        0.1198
     40 C          69.2381   91.6376   10.7192 C.3     1  UNL1        0.0322
     41 C          68.3207   91.9115   13.1343 C.3     1  UNL1        0.0534
     42 C          67.1643   92.0998   14.0712 C.3     1  UNL1        0.1245
     43 N          67.0917   92.2185   15.5647 N.pl3   1  UNL1       -0.2603
     44 C          68.2547   92.1697   16.5107 C.3     1  UNL1        0.1166
     45 C          63.0370   94.0899   17.5399 C.3     1  UNL1        0.0285
     46 C          63.6489   92.7208   17.5687 C.3     1  UNL1        0.1301
     47 O          61.1982   89.8484    9.7745 O.3     1  UNL1       -0.3323
     48 C          61.6573   88.4210    9.8153 C.3     1  UNL1        0.2375
     49 C          62.1802   87.8377   11.0946 C.3     1  UNL1        0.0910
     50 C          62.6393   86.4102   11.1355 C.3     1  UNL1        0.1246
     51 C          63.1866   85.1204   11.6710 C.3     1  UNL1        0.0324
     52 C          62.5755   85.5661    9.8972 C.3     1  UNL1        0.1623
     53 O          63.0346   84.1386    9.9381 O.3     1  UNL1       -0.3796
     54 C          62.0526   86.1494    8.6180 C.3     1  UNL1        0.1468
     55 C          61.9887   85.3053    7.3797 C.3     1  UNL1        0.0348
     56 O          61.5935   87.5768    8.5771 O.3     1  UNL1       -0.3304
     57 H          63.3401   83.9228   10.8330 H       1  UNL1        0.2105
     58 O          62.8931   86.8065   12.5597 O.3     1  UNL1       -0.3532
     59 C          63.5814   85.8539   13.4920 C.3     1  UNL1        0.1740
@<TRIPOS>BOND
     1    45    46    1
     2    46    33    1
     3    33    34    2
     4    34    35    1
     5    36    35    1
     6    36    37    1
     7    37    32    1
     8     1    32    1
     9     1     2    1
    10     2     3    1
    11     2     4    1
    12     4    47    1
    13    48    47    1
    14    48    49    1
    15    49    50    1
    16    50    51    1
    17    50    58    1
    18    58    59    1
    19    50    52    1
    20    52    53    1
    21    52    54    1
    22    54    55    1
    23    54    56    1
    24     4     5    1
    25     5     6    1
    26     5     7    1
    27     7     8    2
    28     7     9    1
    29     9    10    1
    30    10    30    1
    31    30    31    1
    32    10    11    1
    33    11    12    1
    34    11    13    1
    35    11    14    1
    36    14    15    1
    37    14    16    1
    38    16    17    1
    39    16    18    1
    40    18    19    1
    41    18    20    1
    42    20    21    1
    43    21    22    1
    44    21    23    1
    45    23    24    1
    46    24    25    1
    47    24    26    1
    48    37    38    1
    49    38    39    1
    50    39    40    1
    51    39    41    1
    52    42    41    1
    53    42    43    1
    54    43    44    1
    55    43    34    1
    56    42    36    1
    57    24     1    1
    58    56    48    1
    59    53    57    1
    60    13    27    1
    61    15    28    1
    62    26    29    1
@<TRIPOS>MOLECULE
*****
 59 62 0 0 0
SMALL
GASTEIGER

@<TRIPOS>ATOM
      1 C          63.0258   90.1517   12.2538 C.3     1  UNL1        0.1445
      2 C          62.8377   89.5120   10.9102 C.3     1  UNL1        0.0575
      3 C          62.8283   90.7018    9.9968 C.3     1  UNL1        0.0051
      4 C          62.6534   88.3775    9.9464 C.3     1  UNL1        0.1306
      5 C          62.5050   86.9445    9.5290 C.3     1  UNL1        0.1263
      6 C          62.3497   86.7264    8.2057 C.3     1  UNL1        0.0142
      7 C          62.4179   85.4605    9.7302 C.2     1  UNL1        0.3188
      8 O          62.2340   84.9656    8.3262 O.2     1  UNL1       -0.2500
      9 O          62.4073   84.1824   10.5153 O.3     1  UNL1       -0.4497
     10 C          62.4750   83.3310   11.7484 C.3     1  UNL1        0.1953
     11 C          62.6094   83.0537   13.2164 C.3     1  UNL1        0.1506
     12 C          62.4337   81.7945   12.4204 C.3     1  UNL1        0.0356
     13 O          62.6121   81.8329   14.0880 O.3     1  UNL1       -0.3808
     14 C          62.7871   83.3982   14.6654 C.3     1  UNL1        0.1528
     15 O          62.7567   82.0458   15.3135 O.3     1  UNL1       -0.3806
     16 C          62.9774   84.3052   15.8449 C.3     1  UNL1        0.0870
     17 C          63.0262   83.3299   16.9836 C.3     1  UNL1        0.0200
     18 N          63.1475   85.6176   16.5510 N.3     1  UNL1       -0.2705
     19 C          63.2670   85.1881   17.9832 C.3     1  UNL1        0.0897
     20 C          63.2679   87.1087   16.6615 C.3     1  UNL1        0.0722
     21 C          63.3178   88.5205   16.1573 C.3     1  UNL1        0.0184
     22 C          63.5081   89.2981   17.4258 C.3     1  UNL1        0.0015
     23 C          63.2886   89.6091   15.1256 C.3     1  UNL1        0.0307
     24 C          63.1853   90.1861   13.7449 C.3     1  UNL1        0.1134
     25 C          63.3725   91.2497   14.7858 C.3     1  UNL1        0.0318
     26 O          63.2223   91.5599   13.1440 O.3     1  UNL1       -0.3844
     27 H          62.4965   81.0425   13.5377 H       1  UNL1        0.2105
     28 H          62.6354   81.3643   14.6341 H       1  UNL1        0.2105
     29 H          63.3443   92.2171   13.8470 H       1  UNL1        0.2103
     30 C          62.3149   81.9507   11.1836 C.3     1  UNL1        0.0462
     31 C          63.4495   81.3070   10.4430 C.3     1  UNL1        0.0039
     32 O          63.0947   91.6076   11.8991 O.3     1  UNL1       -0.3278
     33 N          66.3318   92.8525   16.7008 N.2     1  UNL1       -0.2243
     34 C          66.1634   92.8842   15.2106 C.2     1  UNL1        0.2833
     35 O          64.9869   92.3556   14.4448 O.2     1  UNL1       -0.4466
     36 C          65.2384   92.5948   12.9855 C.3     1  UNL1        0.2426
     37 C          64.4266   92.2840   11.7629 C.3     1  UNL1        0.2785
     38 O          64.9467   92.6497   10.4044 O.3     1  UNL1       -0.3302
     39 C          66.2786   93.3262   10.2682 C.3     1  UNL1        0.1198
     40 C          66.7986   93.6919    8.9097 C.3     1  UNL1        0.0322
     41 C          67.0903   93.6370   11.4907 C.3     1  UNL1        0.0534
     42 C          66.5702   93.2713   12.8494 C.3     1  UNL1        0.1245
     43 N          67.1420   93.4501   14.2245 N.pl3   1  UNL1       -0.2603
     44 C          68.4607   94.0837   14.5556 C.3     1  UNL1        0.1166
     45 C          63.8814   92.8357   17.5637 C.3     1  UNL1        0.0285
     46 C          65.2626   92.2508   17.5637 C.3     1  UNL1        0.1301
     47 O          62.5675   89.0956    8.6322 O.3     1  UNL1       -0.3323
     48 C          61.2568   89.1787    7.9074 C.3     1  UNL1        0.2375
     49 C          61.0394   90.2405    6.8703 C.3     1  UNL1        0.0910
     50 C          59.7288   90.3236    6.1454 C.3     1  UNL1        0.1246
     51 C          58.6701   90.8046    5.1979 C.3     1  UNL1        0.0324
     52 C          58.6356   89.3449    6.4576 C.3     1  UNL1        0.1623
     53 O          57.3250   89.4281    5.7327 O.3     1  UNL1       -0.3796
     54 C          58.8531   88.2832    7.4946 C.3     1  UNL1        0.1468
     55 C          57.7601   87.3047    7.8068 C.3     1  UNL1        0.0348
     56 O          60.1637   88.2001    8.2195 O.3     1  UNL1       -0.3304
     57 H          57.3507   90.1642    5.1016 H       1  UNL1        0.2105
     58 O          60.4542   91.4692    5.5042 O.3     1  UNL1       -0.3532
     59 C          59.7800   92.2818    4.4388 C.3     1  UNL1        0.1740
@<TRIPOS>BOND
     1    45    46    1
     2    46    33    1
     3    33    34    2
     4    34    35    1
     5    36    35    1
     6    36    37    1
     7    37    32    1
     8     1    32    1
     9     1     2    1
    10     2     3    1
    11     2     4    1
    12     4    47    1
    13    48    47    1
    14    48    49    1
    15    49    50    1
    16    50    51    1
    17    50    58    1
    18    58    59    1
    19    50    52    1
    20    52    53    1
    21    52    54    1
    22    54    55    1
    23    54    56    1
    24     4     5    1
    25     5     6    1
    26     5     7    1
    27     7     8    2
    28     7     9    1
    29     9    10    1
    30    10    30    1
    31    30    31    1
    32    10    11    1
    33    11    12    1
    34    11    13    1
    35    11    14    1
    36    14    15    1
    37    14    16    1
    38    16    17    1
    39    16    18    1
    40    18    19    1
    41    18    20    1
    42    20    21    1
    43    21    22    1
    44    21    23    1
    45    23    24    1
    46    24    25    1
    47    24    26    1
    48    37    38    1
    49    38    39    1
    50    39    40    1
    51    39    41    1
    52    42    41    1
    53    42    43    1
    54    43    44    1
    55    43    34    1
    56    42    36    1
    57    24     1    1
    58    56    48    1
    59    53    57    1
    60    13    27    1
    61    15    28    1
    62    26    29    1
@<TRIPOS>MOLECULE
*****
 59 62 0 0 0
SMALL
GASTEIGER

@<TRIPOS>ATOM
      1 C          63.0647   90.2090   12.1974 C.3     1  UNL1        0.1445
      2 C          62.9238   89.5670   10.8491 C.3     1  UNL1        0.0575
      3 C          62.9630   90.7540    9.9328 C.3     1  UNL1        0.0051
      4 C          62.7666   88.4314    9.8818 C.3     1  UNL1        0.1306
      5 C          62.6202   86.9987    9.4627 C.3     1  UNL1        0.1263
      6 C          62.5157   86.7780    8.1349 C.3     1  UNL1        0.0142
      7 C          62.5100   85.5163    9.6644 C.2     1  UNL1        0.3188
      8 O          62.3772   85.0189    8.2556 O.2     1  UNL1       -0.2500
      9 O          62.4551   84.2409   10.4520 O.3     1  UNL1       -0.4497
     10 C          62.4649   83.3927   11.6891 C.3     1  UNL1        0.1953
     11 C          62.5377   83.1187   13.1621 C.3     1  UNL1        0.1506
     12 C          62.3811   81.8588   12.3631 C.3     1  UNL1        0.0356
     13 O          62.4932   81.9007   14.0365 O.3     1  UNL1       -0.3808
     14 C          62.6609   83.4660   14.6161 C.3     1  UNL1        0.1528
     15 O          62.5909   82.1160   15.2662 O.3     1  UNL1       -0.3806
     16 C          62.8133   84.3747   15.7998 C.3     1  UNL1        0.0870
     17 C          62.8066   83.4026   16.9421 C.3     1  UNL1        0.0200
     18 N          62.9685   85.6876   16.5084 N.3     1  UNL1       -0.2705
     19 C          63.0263   85.2614   17.9454 C.3     1  UNL1        0.0897
     20 C          63.0996   87.1777   16.6195 C.3     1  UNL1        0.0722
     21 C          63.1840   88.5874   16.1139 C.3     1  UNL1        0.0184
     22 C          63.3315   89.3670   17.3869 C.3     1  UNL1        0.0015
     23 C          63.2071   89.6729   15.0789 C.3     1  UNL1        0.0307
     24 C          63.1649   90.2465   13.6935 C.3     1  UNL1        0.1134
     25 C          63.3212   91.3115   14.7382 C.3     1  UNL1        0.0318
     26 O          63.2398   91.6181   13.0908 O.3     1  UNL1       -0.3844
     27 H          62.3915   81.1097   13.4842 H       1  UNL1        0.2105
     28 H          62.4899   81.4336   14.5843 H       1  UNL1        0.2105
     29 H          63.3403   92.2762   13.7963 H       1  UNL1        0.2103
     30 C          62.3133   82.0123   11.1221 C.3     1  UNL1        0.0462
     31 C          63.4898   81.3265   10.4932 C.3     1  UNL1        0.0039
     32 O          63.1625   91.6631   11.8417 O.3     1  UNL1       -0.3278
     33 N          66.3758   92.8491   16.6741 N.2     1  UNL1       -0.2243
     34 C          66.2220   92.8844   15.1824 C.2     1  UNL1        0.2833
     35 O          65.0436   92.3768   14.4054 O.2     1  UNL1       -0.4466
     36 C          65.3129   92.6120   12.9486 C.3     1  UNL1        0.2426
     37 C          64.5073   92.3161   11.7184 C.3     1  UNL1        0.2785
     38 O          65.0464   92.6731   10.3649 O.3     1  UNL1       -0.3302
     39 C          66.3912   93.3261   10.2416 C.3     1  UNL1        0.1198
     40 C          66.9303   93.6830    8.8882 C.3     1  UNL1        0.0322
     41 C          67.1968   93.6220   11.4718 C.3     1  UNL1        0.0534
     42 C          66.6577   93.2650   12.8254 C.3     1  UNL1        0.1245
     43 N          67.2195   93.4334   14.2059 N.pl3   1  UNL1       -0.2603
     44 C          68.5460   94.0435   14.5496 C.3     1  UNL1        0.1166
     45 C          63.9123   92.8628   17.4991 C.3     1  UNL1        0.0285
     46 C          65.2881   92.2660   17.5267 C.3     1  UNL1        0.1301
     47 O          62.7404   89.1463    8.5633 O.3     1  UNL1       -0.3323
     48 C          61.4386   89.3501    7.8465 C.3     1  UNL1        0.2375
     49 C          60.2631   88.4735    8.1626 C.3     1  UNL1        0.0910
     50 C          58.9613   88.6773    7.4459 C.3     1  UNL1        0.1246
     51 C          57.5309   88.4824    7.0387 C.3     1  UNL1        0.0324
     52 C          58.8349   89.7577    6.4130 C.3     1  UNL1        0.1623
     53 O          57.5331   89.9615    5.6962 O.3     1  UNL1       -0.3796
     54 C          60.0104   90.6343    6.0968 C.3     1  UNL1        0.1468
     55 C          59.8841   91.7146    5.0640 C.3     1  UNL1        0.0348
     56 O          61.3122   90.4305    6.8136 O.3     1  UNL1       -0.3304
     57 H          56.8832   89.3166    6.0166 H       1  UNL1        0.2105
     58 O          58.5910   87.5293    8.3373 O.3     1  UNL1       -0.3532
     59 C          59.1328   86.1585    8.0591 C.3     1  UNL1        0.1740
@<TRIPOS>BOND
     1    45    46    1
     2    46    33    1
     3    33    34    2
     4    34    35    1
     5    36    35    1
     6    36    37    1
     7    37    32    1
     8     1    32    1
     9     1     2    1
    10     2     3    1
    11     2     4    1
    12     4    47    1
    13    48    47    1
    14    48    49    1
    15    49    50    1
    16    50    51    1
    17    50    58    1
    18    58    59    1
    19    50    52    1
    20    52    53    1
    21    52    54    1
    22    54    55    1
    23    54    56    1
    24     4     5    1
    25     5     6    1
    26     5     7    1
    27     7     8    2
    28     7     9    1
    29     9    10    1
    30    10    30    1
    31    30    31    1
    32    10    11    1
    33    11    12    1
    34    11    13    1
    35    11    14    1
    36    14    15    1
    37    14    16    1
    38    16    17    1
    39    16    18    1
    40    18    19    1
    41    18    20    1
    42    20    21    1
    43    21    22    1
    44    21    23    1
    45    23    24    1
    46    24    25    1
    47    24    26    1
    48    37    38    1
    49    38    39    1
    50    39    40    1
    51    39    41    1
    52    42    41    1
    53    42    43    1
    54    43    44    1
    55    43    34    1
    56    42    36    1
    57    24     1    1
    58    56    48    1
    59    53    57    1
    60    13    27    1
    61    15    28    1
    62    26    29    1
@<TRIPOS>MOLECULE
*****
 59 62 0 0 0
SMALL
GASTEIGER

@<TRIPOS>ATOM
      1 C          63.0208   88.9675   13.0482 C.3     1  UNL1        0.1445
      2 C          62.8174   88.7652   11.5759 C.3     1  UNL1        0.0575
      3 C          62.6330   90.1723   11.0902 C.3     1  UNL1        0.0051
      4 C          62.6907   87.9776   10.3056 C.3     1  UNL1        0.1306
      5 C          62.6626   86.7412    9.4569 C.3     1  UNL1        0.1263
      6 C          62.4506   86.9336    8.1375 C.3     1  UNL1        0.0142
      7 C          62.7379   85.2695    9.1766 C.2     1  UNL1        0.3188
      8 O          62.5204   85.2231    7.6931 O.2     1  UNL1       -0.2500
      9 O          62.9036   83.8172    9.5130 O.3     1  UNL1       -0.4497
     10 C          63.1312   82.6352   10.4082 C.3     1  UNL1        0.1953
     11 C          63.3811   81.9281   11.7072 C.3     1  UNL1        0.1506
     12 C          63.2856   80.9714   10.5558 C.3     1  UNL1        0.0356
     13 O          63.5595   80.5041   12.1436 O.3     1  UNL1       -0.3808
     14 C          63.6102   81.8180   13.1855 C.3     1  UNL1        0.1528
     15 O          63.7555   80.3364   13.3690 O.3     1  UNL1       -0.3806
     16 C          63.7790   82.3240   14.5874 C.3     1  UNL1        0.0870
     17 C          63.9944   81.0529   15.3540 C.3     1  UNL1        0.0200
     18 N          63.8581   83.3586   15.6706 N.3     1  UNL1       -0.2705
     19 C          64.1065   82.5177   16.8876 C.3     1  UNL1        0.0897
     20 C          63.8340   84.7429   16.2478 C.3     1  UNL1        0.0722
     21 C          63.7108   86.2376   16.2191 C.3     1  UNL1        0.0184
     22 C          63.8979   86.5937   17.6641 C.3     1  UNL1        0.0015
     23 C          63.5097   87.5842   15.5895 C.3     1  UNL1        0.0307
     24 C          63.2657   88.5498   14.4679 C.3     1  UNL1        0.1134
     25 C          63.4071   89.2467   15.7886 C.3     1  UNL1        0.0318
     26 O          63.1276   90.0376   14.3358 O.3     1  UNL1       -0.3844
     27 H          63.4912   79.9188   11.3731 H       1  UNL1        0.2105
     28 H          63.6628   79.8937   12.5110 H       1  UNL1        0.2105
     29 H          63.2248   90.4501   15.2083 H       1  UNL1        0.2103
     30 C          63.0772   81.4934    9.4368 C.3     1  UNL1        0.0462
     31 C          62.7384   80.1140    9.9190 C.3     1  UNL1        0.0039
     32 O          62.9210   90.4589   13.1747 O.3     1  UNL1       -0.3278
     33 N          68.2853   92.1800   11.3455 N.2     1  UNL1       -0.2243
     34 C          67.2496   92.1075   12.4281 C.2     1  UNL1        0.2833
     35 O          65.8974   91.4686   12.3133 O.2     1  UNL1       -0.4466
     36 C          65.1964   91.6273   13.6299 C.3     1  UNL1        0.2426
     37 C          63.8399   91.1959   14.1033 C.3     1  UNL1        0.2785
     38 O          63.4026   91.5016   15.5052 O.3     1  UNL1       -0.3302
     39 C          64.3217   92.2386   16.4338 C.3     1  UNL1        0.1198
     40 C          63.8843   92.5442   17.8356 C.3     1  UNL1        0.0322
     41 C          65.6781   92.6700   15.9604 C.3     1  UNL1        0.0534
     42 C          66.1155   92.3643   14.5585 C.3     1  UNL1        0.1245
     43 N          67.3844   92.6611   13.8158 N.pl3   1  UNL1       -0.2603
     44 C          68.5785   93.3844   14.3643 C.3     1  UNL1        0.1166
     45 C          68.5584   92.2212    8.7622 C.3     1  UNL1        0.0285
     46 C          68.0072   91.5781   10.0000 C.3     1  UNL1        0.1301
     47 O          62.4536   89.0574    9.2917 O.3     1  UNL1       -0.3323
     48 C          61.2050   89.0445    8.4605 C.3     1  UNL1        0.2375
     49 C          61.0037   90.0795    7.3935 C.3     1  UNL1        0.0910
     50 C          59.7551   90.0667    6.5623 C.3     1  UNL1        0.1246
     51 C          58.7488   90.4659    5.5240 C.3     1  UNL1        0.0324
     52 C          58.7078   89.0190    6.7981 C.3     1  UNL1        0.1623
     53 O          57.4592   89.0062    5.9669 O.3     1  UNL1       -0.3796
     54 C          58.9091   87.9841    7.8651 C.3     1  UNL1        0.1468
     55 C          57.8619   86.9364    8.1009 C.3     1  UNL1        0.0348
     56 O          60.1577   87.9969    8.6963 O.3     1  UNL1       -0.3304
     57 H          57.4878   89.7365    5.3292 H       1  UNL1        0.2105
     58 O          60.4529   91.2530    5.9660 O.3     1  UNL1       -0.3532
     59 C          59.9044   91.9027    4.7302 C.3     1  UNL1        0.1740
@<TRIPOS>BOND
     1    45    46    1
     2    46    33    1
     3    33    34    2
     4    34    35    1
     5    36    35    1
     6    36    37    1
     7    37    32    1
     8     1    32    1
     9     1     2    1
    10     2     3    1
    11     2     4    1
    12     4    47    1
    13    48    47    1
    14    48    49    1
    15    49    50    1
    16    50    51    1
    17    50    58    1
    18    58    59    1
    19    50    52    1
    20    52    53    1
    21    52    54    1
    22    54    55    1
    23    54    56    1
    24     4     5    1
    25     5     6    1
    26     5     7    1
    27     7     8    2
    28     7     9    1
    29     9    10    1
    30    10    30    1
    31    30    31    1
    32    10    11    1
    33    11    12    1
    34    11    13    1
    35    11    14    1
    36    14    15    1
    37    14    16    1
    38    16    17    1
    39    16    18    1
    40    18    19    1
    41    18    20    1
    42    20    21    1
    43    21    22    1
    44    21    23    1
    45    23    24    1
    46    24    25    1
    47    24    26    1
    48    37    38    1
    49    38    39    1
    50    39    40    1
    51    39    41    1
    52    42    41    1
    53    42    43    1
    54    43    44    1
    55    43    34    1
    56    42    36    1
    57    24     1    1
    58    56    48    1
    59    53    57    1
    60    13    27    1
    61    15    28    1
    62    26    29    1
