@<TRIPOS>MOLECULE
*****
 25 28 0 0 0
SMALL
GASTEIGER

@<TRIPOS>ATOM
      1 C          64.4173   84.6774   15.2259 C.3     1  UNL1        0.0913
      2 C          64.0277   86.0740   15.6099 C.ar    1  UNL1       -0.0109
      3 C          63.2987   86.3222   16.8972 C.ar    1  UNL1       -0.0034
      4 C          62.9090   87.7188   17.2812 C.ar    1  UNL1       -0.0003
      5 C          63.2484   88.8674   16.3780 C.ar    1  UNL1       -0.0000
      6 C          63.9774   88.6192   15.0908 C.ar    1  UNL1       -0.0003
      7 C          64.3670   87.2225   14.7068 C.ar    1  UNL1       -0.0034
      8 C          64.3168   89.7677   14.1876 C.ar    1  UNL1       -0.0000
      9 C          63.5595   89.9645   12.9079 C.ar    1  UNL1       -0.0000
     10 C          63.8989   91.1130   12.0046 C.ar    1  UNL1       -0.0000
     11 C          64.9956   92.0646   12.3811 C.ar    1  UNL1        0.0000
     12 C          65.7529   91.8677   13.6609 C.ar    1  UNL1       -0.0000
     13 C          65.4135   90.7193   14.5641 C.ar    1  UNL1       -0.0000
     14 S          63.5031   83.8523   14.3694 S.3     1  UNL1       -0.0709
     15 C          61.3199   86.3600    8.8422 C.2     1  UNL1        0.1223
     16 C          62.3710   85.4811    8.2318 C.2     1  UNL1        0.0343
     17 C          63.2327   84.6223    9.1092 C.2     1  UNL1        0.0232
     18 C          63.0433   84.6423   10.5971 C.2     1  UNL1        0.0975
     19 N          63.7372   83.9102   11.7072 N.2     1  UNL1       -0.2200
     20 C          63.1149   84.3366   13.0038 C.2     1  UNL1        0.1901
     21 N          62.0364   85.3323   12.6949 N.2     1  UNL1       -0.2236
     22 C          61.9922   85.5213   11.2075 C.2     1  UNL1        0.0863
     23 C          61.1305   86.3801   10.3300 C.3     1  UNL1        0.1112
     24 C          58.9995   86.9061    7.8090 C.3     1  UNL1        0.2520
     25 O          60.4582   87.2189    7.9648 O.2     1  UNL1       -0.4753
@<TRIPOS>BOND
     1    24    25    1
     2    25    15    1
     3    15    16    2
     4    16    17    1
     5    17    18    2
     6    18    19    1
     7    19    20    2
     8    20    14    1
     9    14     1    1
    10     1     2    1
    11     2     3   ar
    12     3     4   ar
    13     4     5   ar
    14     5     6   ar
    15     6     8    1
    16     8     9   ar
    17     9    10   ar
    18    10    11   ar
    19    11    12   ar
    20    12    13   ar
    21     6     7   ar
    22    20    21    1
    23    21    22    2
    24    22    23    1
    25    23    15    1
    26    22    18    1
    27     7     2   ar
    28    13     8   ar
@<TRIPOS>MOLECULE
*****
 25 28 0 0 0
SMALL
GASTEIGER

@<TRIPOS>ATOM
      1 C          62.9355   83.4738   13.8871 C.3     1  UNL1        0.0913
      2 C          63.0577   83.8042   12.4290 C.ar    1  UNL1       -0.0109
      3 C          63.9157   82.9565   11.5373 C.ar    1  UNL1       -0.0034
      4 C          64.0378   83.2868   10.0792 C.ar    1  UNL1       -0.0003
      5 C          63.3019   84.4649    9.5129 C.ar    1  UNL1       -0.0000
      6 C          62.4439   85.3126   10.4047 C.ar    1  UNL1       -0.0003
      7 C          62.3218   84.9822   11.8628 C.ar    1  UNL1       -0.0034
      8 C          61.7080   86.4906    9.8384 C.ar    1  UNL1       -0.0000
      9 C          60.6021   86.2784    8.8476 C.ar    1  UNL1       -0.0000
     10 C          59.8662   87.4564    8.2812 C.ar    1  UNL1       -0.0000
     11 C          60.2362   88.8467    8.7058 C.ar    1  UNL1        0.0000
     12 C          61.3422   89.0589    9.6967 C.ar    1  UNL1       -0.0000
     13 C          62.0781   87.8808   10.2630 C.ar    1  UNL1       -0.0000
     14 S          63.8769   84.0923   14.8776 S.3     1  UNL1       -0.0709
     15 C          64.1803   90.5278   15.1885 C.2     1  UNL1        0.1223
     16 C          63.4448   90.3253   16.4800 C.2     1  UNL1        0.0343
     17 C          63.0901   88.9396   16.9318 C.2     1  UNL1        0.0232
     18 C          63.4709   87.7565   16.0921 C.2     1  UNL1        0.0975
     19 N          63.2580   86.2834   16.2781 N.2     1  UNL1       -0.2200
     20 C          63.8619   85.5755   15.1016 C.2     1  UNL1        0.1901
     21 N          64.4480   86.6110   14.1884 N.2     1  UNL1       -0.2236
     22 C          64.2064   87.9590   14.8006 C.2     1  UNL1        0.0863
     23 C          64.5610   89.3447   14.3488 C.3     1  UNL1        0.1112
     24 C          65.6205   92.1166   13.7217 C.3     1  UNL1        0.2520
     25 O          64.5349   91.9135   14.7367 O.2     1  UNL1       -0.4753
@<TRIPOS>BOND
     1    24    25    1
     2    25    15    1
     3    15    16    2
     4    16    17    1
     5    17    18    2
     6    18    19    1
     7    19    20    2
     8    20    14    1
     9    14     1    1
    10     1     2    1
    11     2     3   ar
    12     3     4   ar
    13     4     5   ar
    14     5     6   ar
    15     6     8    1
    16     8     9   ar
    17     9    10   ar
    18    10    11   ar
    19    11    12   ar
    20    12    13   ar
    21     6     7   ar
    22    20    21    1
    23    21    22    2
    24    22    23    1
    25    23    15    1
    26    22    18    1
    27     7     2   ar
    28    13     8   ar
@<TRIPOS>MOLECULE
*****
 25 28 0 0 0
SMALL
GASTEIGER

@<TRIPOS>ATOM
      1 C          60.5397   87.9753   10.7161 C.3     1  UNL1        0.0913
      2 C          61.4321   86.8304   10.3382 C.ar    1  UNL1       -0.0109
      3 C          62.0374   86.7722    8.9669 C.ar    1  UNL1       -0.0034
      4 C          62.9298   85.6273    8.5890 C.ar    1  UNL1       -0.0003
      5 C          63.2169   84.5405    9.5824 C.ar    1  UNL1       -0.0000
      6 C          62.6116   84.5988   10.9536 C.ar    1  UNL1       -0.0003
      7 C          61.7192   85.7437   11.3315 C.ar    1  UNL1       -0.0034
      8 C          62.8988   83.5121   11.9469 C.ar    1  UNL1       -0.0000
      9 C          63.2718   83.8640   13.3565 C.ar    1  UNL1       -0.0000
     10 C          63.5589   82.7773   14.3499 C.ar    1  UNL1       -0.0000
     11 C          63.4730   81.3388   13.9336 C.ar    1  UNL1        0.0000
     12 C          63.0999   80.9870   12.5240 C.ar    1  UNL1       -0.0000
     13 C          62.8128   82.0736   11.5306 C.ar    1  UNL1       -0.0000
     14 S          61.0089   89.3870   10.5241 S.3     1  UNL1       -0.0709
     15 C          66.0250   92.1638   13.4792 C.2     1  UNL1        0.1223
     16 C          65.7713   91.1117   14.5178 C.2     1  UNL1        0.0343
     17 C          64.6530   90.1293   14.3326 C.2     1  UNL1        0.0232
     18 C          63.7885   90.1989   13.1088 C.2     1  UNL1        0.0975
     19 N          62.6214   89.3726   12.6560 N.2     1  UNL1       -0.2200
     20 C          62.1537   89.9140   11.3376 C.2     1  UNL1        0.1901
     21 N          63.0319   91.0750   10.9755 N.2     1  UNL1       -0.2236
     22 C          64.0422   91.2510   12.0702 C.2     1  UNL1        0.0863
     23 C          65.1605   92.2335   12.2555 C.3     1  UNL1        0.1112
     24 C          67.6838   93.4173   15.0371 C.3     1  UNL1        0.2520
     25 O          67.1432   93.1463   13.6645 O.2     1  UNL1       -0.4753
@<TRIPOS>BOND
     1    24    25    1
     2    25    15    1
     3    15    16    2
     4    16    17    1
     5    17    18    2
     6    18    19    1
     7    19    20    2
     8    20    14    1
     9    14     1    1
    10     1     2    1
    11     2     3   ar
    12     3     4   ar
    13     4     5   ar
    14     5     6   ar
    15     6     8    1
    16     8     9   ar
    17     9    10   ar
    18    10    11   ar
    19    11    12   ar
    20    12    13   ar
    21     6     7   ar
    22    20    21    1
    23    21    22    2
    24    22    23    1
    25    23    15    1
    26    22    18    1
    27     7     2   ar
    28    13     8   ar
@<TRIPOS>MOLECULE
*****
 25 28 0 0 0
SMALL
GASTEIGER

@<TRIPOS>ATOM
      1 C          62.8740   84.2061   13.4282 C.3     1  UNL1        0.0913
      2 C          62.9208   84.3845   11.9397 C.ar    1  UNL1       -0.0109
      3 C          63.8483   83.5445   11.1125 C.ar    1  UNL1       -0.0034
      4 C          63.8952   83.7229    9.6239 C.ar    1  UNL1       -0.0003
      5 C          63.0145   84.7412    8.9624 C.ar    1  UNL1       -0.0000
      6 C          62.0870   85.5812    9.7896 C.ar    1  UNL1       -0.0003
      7 C          62.0402   85.4028   11.2783 C.ar    1  UNL1       -0.0034
      8 C          61.2064   86.5994    9.1282 C.ar    1  UNL1       -0.0000
      9 C          60.2059   86.1690    8.0968 C.ar    1  UNL1       -0.0000
     10 C          59.3252   87.1873    7.4354 C.ar    1  UNL1       -0.0000
     11 C          59.4450   88.6360    7.8053 C.ar    1  UNL1        0.0000
     12 C          60.4455   89.0664    8.8368 C.ar    1  UNL1       -0.0000
     13 C          61.3261   88.0482    9.4982 C.ar    1  UNL1       -0.0000
     14 S          63.7699   85.0244   14.3102 S.3     1  UNL1       -0.0709
     15 C          64.7745   91.3847   13.9348 C.2     1  UNL1        0.1223
     16 C          63.9488   91.2647   12.6883 C.2     1  UNL1        0.0343
     17 C          63.4159   89.9271   12.2676 C.2     1  UNL1        0.0232
     18 C          63.7088   88.7096   13.0933 C.2     1  UNL1        0.0975
     19 N          63.3219   87.2696   12.9305 N.2     1  UNL1       -0.2200
     20 C          63.9085   86.4996   14.0764 C.2     1  UNL1        0.1901
     21 N          64.6579   87.4638   14.9474 N.2     1  UNL1       -0.2236
     22 C          64.5345   88.8297   14.3398 C.2     1  UNL1        0.0863
     23 C          65.0673   90.1672   14.7605 C.3     1  UNL1        0.1112
     24 C          66.7092   93.1176   13.9973 C.3     1  UNL1        0.2520
     25 O          65.3073   92.7223   14.3556 O.2     1  UNL1       -0.4753
@<TRIPOS>BOND
     1    24    25    1
     2    25    15    1
     3    15    16    2
     4    16    17    1
     5    17    18    2
     6    18    19    1
     7    19    20    2
     8    20    14    1
     9    14     1    1
    10     1     2    1
    11     2     3   ar
    12     3     4   ar
    13     4     5   ar
    14     5     6   ar
    15     6     8    1
    16     8     9   ar
    17     9    10   ar
    18    10    11   ar
    19    11    12   ar
    20    12    13   ar
    21     6     7   ar
    22    20    21    1
    23    21    22    2
    24    22    23    1
    25    23    15    1
    26    22    18    1
    27     7     2   ar
    28    13     8   ar
@<TRIPOS>MOLECULE
*****
 25 28 0 0 0
SMALL
GASTEIGER

@<TRIPOS>ATOM
      1 C          61.1752   86.5733    9.0096 C.3     1  UNL1        0.0913
      2 C          62.0962   85.6593    9.7622 C.ar    1  UNL1       -0.0109
      3 C          62.9109   84.6400    9.0224 C.ar    1  UNL1       -0.0034
      4 C          63.8318   83.7261    9.7751 C.ar    1  UNL1       -0.0003
      5 C          63.9381   83.8314   11.2677 C.ar    1  UNL1       -0.0000
      6 C          63.1234   84.8507   12.0075 C.ar    1  UNL1       -0.0003
      7 C          62.2024   85.7646   11.2547 C.ar    1  UNL1       -0.0034
      8 C          63.2296   84.9560   13.5000 C.ar    1  UNL1       -0.0000
      9 C          64.1278   85.9867   14.1170 C.ar    1  UNL1       -0.0000
     10 C          64.2341   86.0920   15.6096 C.ar    1  UNL1       -0.0000
     11 C          63.4420   85.1667   16.4850 C.ar    1  UNL1        0.0000
     12 C          62.5438   84.1359   15.8679 C.ar    1  UNL1       -0.0000
     13 C          62.4375   84.0306   14.3754 C.ar    1  UNL1       -0.0000
     14 S          60.6525   87.8171    9.6649 S.3     1  UNL1       -0.0709
     15 C          64.6116   91.5585   13.1192 C.2     1  UNL1        0.1223
     16 C          64.8068   92.2614   11.8085 C.2     1  UNL1        0.0343
     17 C          64.0818   91.7829   10.5857 C.2     1  UNL1        0.0232
     18 C          63.1616   90.6016   10.6734 C.2     1  UNL1        0.0975
     19 N          62.3186   89.9074    9.6452 N.2     1  UNL1       -0.2200
     20 C          61.6024   88.7755   10.3203 C.2     1  UNL1        0.1901
     21 N          62.0028   88.7701   11.7659 N.2     1  UNL1       -0.2236
     22 C          62.9665   89.8987   11.9841 C.2     1  UNL1        0.0863
     23 C          63.6915   90.3772   13.2070 C.3     1  UNL1        0.1112
     24 C          66.4120   93.0754   14.2182 C.3     1  UNL1        0.2520
     25 O          65.3366   92.0370   14.3421 O.2     1  UNL1       -0.4753
@<TRIPOS>BOND
     1    24    25    1
     2    25    15    1
     3    15    16    2
     4    16    17    1
     5    17    18    2
     6    18    19    1
     7    19    20    2
     8    20    14    1
     9    14     1    1
    10     1     2    1
    11     2     3   ar
    12     3     4   ar
    13     4     5   ar
    14     5     6   ar
    15     6     8    1
    16     8     9   ar
    17     9    10   ar
    18    10    11   ar
    19    11    12   ar
    20    12    13   ar
    21     6     7   ar
    22    20    21    1
    23    21    22    2
    24    22    23    1
    25    23    15    1
    26    22    18    1
    27     7     2   ar
    28    13     8   ar
@<TRIPOS>MOLECULE
*****
 25 28 0 0 0
SMALL
GASTEIGER

@<TRIPOS>ATOM
      1 C          64.5142   85.9875   14.7102 C.3     1  UNL1        0.0913
      2 C          64.1939   87.3702   15.1954 C.ar    1  UNL1       -0.0109
      3 C          63.3033   87.5592   16.3876 C.ar    1  UNL1       -0.0034
      4 C          62.9830   88.9419   16.8727 C.ar    1  UNL1       -0.0003
      5 C          63.5532   90.1357   16.1658 C.ar    1  UNL1       -0.0000
      6 C          64.4438   89.9467   14.9737 C.ar    1  UNL1       -0.0003
      7 C          64.7641   88.5639   14.4885 C.ar    1  UNL1       -0.0034
      8 C          65.0141   91.1404   14.2668 C.ar    1  UNL1       -0.0000
      9 C          65.9399   92.0706   14.9931 C.ar    1  UNL1       -0.0000
     10 C          66.5102   93.2644   14.2861 C.ar    1  UNL1       -0.0000
     11 C          66.1546   93.5279   12.8529 C.ar    1  UNL1        0.0000
     12 C          65.2288   92.5977   12.1266 C.ar    1  UNL1       -0.0000
     13 C          64.6585   91.4039   12.8335 C.ar    1  UNL1       -0.0000
     14 S          63.5779   85.2865   13.7711 S.3     1  UNL1       -0.0709
     15 C          60.3343   87.9431    8.8694 C.2     1  UNL1        0.1223
     16 C          61.0630   89.1850    9.2899 C.2     1  UNL1        0.0343
     17 C          62.0111   89.1413   10.4514 C.2     1  UNL1        0.0232
     18 C          62.2306   87.8558   11.1924 C.2     1  UNL1        0.0975
     19 N          63.0970   87.5097   12.3670 N.2     1  UNL1       -0.2200
     20 C          62.9037   86.0539   12.6726 C.2     1  UNL1        0.1901
     21 N          61.9180   85.5003   11.6868 N.2     1  UNL1       -0.2236
     22 C          61.5020   86.6140   10.7720 C.2     1  UNL1        0.0863
     23 C          60.5538   86.6576    9.6105 C.3     1  UNL1        0.1112
     24 C          59.3011   89.2177    6.8550 C.3     1  UNL1        0.2520
     25 O          59.3862   87.9868    7.7079 O.2     1  UNL1       -0.4753
@<TRIPOS>BOND
     1    24    25    1
     2    25    15    1
     3    15    16    2
     4    16    17    1
     5    17    18    2
     6    18    19    1
     7    19    20    2
     8    20    14    1
     9    14     1    1
    10     1     2    1
    11     2     3   ar
    12     3     4   ar
    13     4     5   ar
    14     5     6   ar
    15     6     8    1
    16     8     9   ar
    17     9    10   ar
    18    10    11   ar
    19    11    12   ar
    20    12    13   ar
    21     6     7   ar
    22    20    21    1
    23    21    22    2
    24    22    23    1
    25    23    15    1
    26    22    18    1
    27     7     2   ar
    28    13     8   ar
@<TRIPOS>MOLECULE
*****
 25 28 0 0 0
SMALL
GASTEIGER

@<TRIPOS>ATOM
      1 C          64.3031   86.5612   14.7596 C.3     1  UNL1        0.0913
      2 C          64.1372   87.9955   15.1658 C.ar    1  UNL1       -0.0109
      3 C          63.3861   88.3384   16.4182 C.ar    1  UNL1       -0.0034
      4 C          63.2203   89.7727   16.8243 C.ar    1  UNL1       -0.0003
      5 C          63.8054   90.8644   15.9781 C.ar    1  UNL1       -0.0000
      6 C          64.5565   90.5215   14.7258 C.ar    1  UNL1       -0.0003
      7 C          64.7224   89.0871   14.3196 C.ar    1  UNL1       -0.0034
      8 C          65.1417   91.6131   13.8796 C.ar    1  UNL1       -0.0000
      9 C          64.7981   91.6979   12.4220 C.ar    1  UNL1       -0.0000
     10 C          65.3832   92.7894   11.5757 C.ar    1  UNL1       -0.0000
     11 C          66.3120   93.7962   12.1871 C.ar    1  UNL1        0.0000
     12 C          66.6556   93.7113   13.6448 C.ar    1  UNL1       -0.0000
     13 C          66.0705   92.6198   14.4910 C.ar    1  UNL1       -0.0000
     14 S          63.3417   85.5240   15.2599 S.3     1  UNL1       -0.0709
     15 C          62.8144   80.3333   11.4674 C.2     1  UNL1        0.1223
     16 C          62.5653   79.6262   12.7666 C.2     1  UNL1        0.0343
     17 C          62.5729   80.3968   14.0534 C.2     1  UNL1        0.0232
     18 C          62.8297   81.8746   14.0412 C.2     1  UNL1        0.0975
     19 N          62.8978   82.8907   15.1424 N.2     1  UNL1       -0.2200
     20 C          63.1891   84.2259   14.5239 C.2     1  UNL1        0.1901
     21 N          63.3009   84.0349   13.0404 N.2     1  UNL1       -0.2236
     22 C          63.0788   82.5817   12.7420 C.2     1  UNL1        0.0863
     23 C          63.0711   81.8111   11.4551 C.3     1  UNL1        0.1112
     24 C          62.8709   78.0642   10.2033 C.3     1  UNL1        0.2520
     25 O          62.8068   79.5626   10.1805 O.2     1  UNL1       -0.4753
@<TRIPOS>BOND
     1    24    25    1
     2    25    15    1
     3    15    16    2
     4    16    17    1
     5    17    18    2
     6    18    19    1
     7    19    20    2
     8    20    14    1
     9    14     1    1
    10     1     2    1
    11     2     3   ar
    12     3     4   ar
    13     4     5   ar
    14     5     6   ar
    15     6     8    1
    16     8     9   ar
    17     9    10   ar
    18    10    11   ar
    19    11    12   ar
    20    12    13   ar
    21     6     7   ar
    22    20    21    1
    23    21    22    2
    24    22    23    1
    25    23    15    1
    26    22    18    1
    27     7     2   ar
    28    13     8   ar
@<TRIPOS>MOLECULE
*****
 25 28 0 0 0
SMALL
GASTEIGER

@<TRIPOS>ATOM
      1 C          61.1752   87.0211    8.4014 C.3     1  UNL1        0.0913
      2 C          61.0635   87.9630    9.5635 C.ar    1  UNL1       -0.0109
      3 C          59.8056   88.0012   10.3797 C.ar    1  UNL1       -0.0034
      4 C          59.6938   88.9431   11.5417 C.ar    1  UNL1       -0.0003
      5 C          60.8401   89.8467   11.8876 C.ar    1  UNL1       -0.0000
      6 C          62.0980   89.8085   11.0714 C.ar    1  UNL1       -0.0003
      7 C          62.2097   88.8666    9.9093 C.ar    1  UNL1       -0.0034
      8 C          63.2442   90.7121   11.4173 C.ar    1  UNL1       -0.0000
      9 C          63.8273   91.6172   10.3729 C.ar    1  UNL1       -0.0000
     10 C          64.9735   92.5208   10.7187 C.ar    1  UNL1       -0.0000
     11 C          65.5367   92.5193   12.1090 C.ar    1  UNL1        0.0000
     12 C          64.9536   91.6142   13.1534 C.ar    1  UNL1       -0.0000
     13 C          63.8074   90.7106   12.8076 C.ar    1  UNL1       -0.0000
     14 S          62.3023   86.0331    8.3425 S.3     1  UNL1       -0.0709
     15 C          63.4857   83.1350   13.9821 C.2     1  UNL1        0.1223
     16 C          64.2829   82.1919   13.1306 C.2     1  UNL1        0.0343
     17 C          64.3607   82.4036   11.6477 C.2     1  UNL1        0.0232
     18 C          63.6414   83.5584   11.0162 C.2     1  UNL1        0.0975
     19 N          63.5354   84.0174    9.5921 N.2     1  UNL1       -0.2200
     20 C          62.6727   85.2441    9.5633 C.2     1  UNL1        0.1901
     21 N          62.2454   85.5434   10.9697 N.2     1  UNL1       -0.2236
     22 C          62.8441   84.5015   11.8676 C.2     1  UNL1        0.0863
     23 C          62.7663   84.2898   13.3505 C.3     1  UNL1        0.1112
     24 C          62.8656   84.0064   16.3498 C.3     1  UNL1        0.2520
     25 O          63.4078   82.9233   15.4650 O.2     1  UNL1       -0.4753
@<TRIPOS>BOND
     1    24    25    1
     2    25    15    1
     3    15    16    2
     4    16    17    1
     5    17    18    2
     6    18    19    1
     7    19    20    2
     8    20    14    1
     9    14     1    1
    10     1     2    1
    11     2     3   ar
    12     3     4   ar
    13     4     5   ar
    14     5     6   ar
    15     6     8    1
    16     8     9   ar
    17     9    10   ar
    18    10    11   ar
    19    11    12   ar
    20    12    13   ar
    21     6     7   ar
    22    20    21    1
    23    21    22    2
    24    22    23    1
    25    23    15    1
    26    22    18    1
    27     7     2   ar
    28    13     8   ar
@<TRIPOS>MOLECULE
*****
 25 28 0 0 0
SMALL
GASTEIGER

@<TRIPOS>ATOM
      1 C          61.2211   87.3539    8.9322 C.3     1  UNL1        0.0913
      2 C          61.1915   88.4054   10.0015 C.ar    1  UNL1       -0.0109
      3 C          59.9386   88.6341   10.7940 C.ar    1  UNL1       -0.0034
      4 C          59.9090   89.6856   11.8633 C.ar    1  UNL1       -0.0003
      5 C          61.1323   90.5085   12.1401 C.ar    1  UNL1       -0.0000
      6 C          62.3851   90.2798   11.3476 C.ar    1  UNL1       -0.0003
      7 C          62.4147   89.2283   10.2783 C.ar    1  UNL1       -0.0034
      8 C          63.6083   91.1027   11.6244 C.ar    1  UNL1       -0.0000
      9 C          64.2110   91.1119   12.9979 C.ar    1  UNL1       -0.0000
     10 C          65.4343   91.9347   13.2747 C.ar    1  UNL1       -0.0000
     11 C          66.0549   92.7483   12.1780 C.ar    1  UNL1        0.0000
     12 C          65.4521   92.7391   10.8044 C.ar    1  UNL1       -0.0000
     13 C          64.2289   91.9163   10.5276 C.ar    1  UNL1       -0.0000
     14 S          62.2906   86.3022    8.9440 S.3     1  UNL1       -0.0709
     15 C          63.1652   81.9876   13.6582 C.2     1  UNL1        0.1223
     16 C          62.9748   83.1809   14.5470 C.2     1  UNL1        0.0343
     17 C          62.7216   84.5314   13.9453 C.2     1  UNL1        0.0232
     18 C          62.6587   84.6887   12.4550 C.2     1  UNL1        0.0975
     19 N          62.4263   85.8853   11.5809 N.2     1  UNL1       -0.2200
     20 C          62.4731   85.4316   10.1519 C.2     1  UNL1        0.1901
     21 N          62.7344   83.9546   10.1428 N.2     1  UNL1       -0.2236
     22 C          62.8491   83.4955   11.5662 C.2     1  UNL1        0.0863
     23 C          63.1024   82.1449   12.1679 C.3     1  UNL1        0.1112
     24 C          62.5921   79.4597   13.8347 C.3     1  UNL1        0.2520
     25 O          63.4184   80.6371   14.2599 O.2     1  UNL1       -0.4753
@<TRIPOS>BOND
     1    24    25    1
     2    25    15    1
     3    15    16    2
     4    16    17    1
     5    17    18    2
     6    18    19    1
     7    19    20    2
     8    20    14    1
     9    14     1    1
    10     1     2    1
    11     2     3   ar
    12     3     4   ar
    13     4     5   ar
    14     5     6   ar
    15     6     8    1
    16     8     9   ar
    17     9    10   ar
    18    10    11   ar
    19    11    12   ar
    20    12    13   ar
    21     6     7   ar
    22    20    21    1
    23    21    22    2
    24    22    23    1
    25    23    15    1
    26    22    18    1
    27     7     2   ar
    28    13     8   ar
