@<TRIPOS>MOLECULE
*****
 15 16 0 0 0
SMALL
GASTEIGER

@<TRIPOS>ATOM
      1 C          64.6056   90.9995   13.7664 C.ar    1  UNL1        0.0234
      2 C          65.8848   91.1898   14.5264 C.ar    1  UNL1        0.0040
      3 C          66.7884   92.0587   13.7026 C.ar    1  UNL1        0.0067
      4 C          66.0676   92.4053   12.4336 C.ar    1  UNL1        0.0307
      5 S          64.7186   91.7507   12.4730 S.2     1  UNL1       -0.0898
      6 C          66.6022   93.2571   11.3205 C.ar    1  UNL1        0.0252
      7 C          67.3953   92.6314   10.2118 C.ar    1  UNL1        0.0036
      8 C          67.9298   93.4832    9.0988 C.ar    1  UNL1        0.0207
      9 C          67.6711   94.9607    9.0945 C.ar    1  UNL1        0.0989
     10 N          66.8779   95.5864   10.2032 N.ar    1  UNL1       -0.2423
     11 C          66.3434   94.7346   11.3162 C.ar    1  UNL1        0.0993
     12 C          63.4213   90.1985   14.2202 C.3     1  UNL1        0.1057
     13 C          63.0972   89.1390   16.5702 C.3     1  UNL1        0.0899
     14 N          63.6111   89.0481   15.1639 N.3     1  UNL1       -0.2661
     15 C          64.3147   87.8068   14.7013 C.3     1  UNL1        0.0899
@<TRIPOS>BOND
     1    13    14    1
     2    14    15    1
     3    14    12    1
     4    12     1    1
     5     1     2   ar
     6     2     3   ar
     7     3     4   ar
     8     4     6    1
     9     6     7   ar
    10     7     8   ar
    11     8     9   ar
    12     9    10   ar
    13    10    11   ar
    14     4     5   ar
    15     5     1   ar
    16    11     6   ar
@<TRIPOS>MOLECULE
*****
 15 16 0 0 0
SMALL
GASTEIGER

@<TRIPOS>ATOM
      1 C          63.4369   83.6782   11.6536 C.ar    1  UNL1        0.0234
      2 C          63.9323   83.4115   10.2631 C.ar    1  UNL1        0.0040
      3 C          63.3250   84.4354    9.3504 C.ar    1  UNL1        0.0067
      4 C          62.4544   85.3349   10.1769 C.ar    1  UNL1        0.0307
      5 S          62.5236   84.8669   11.6003 S.2     1  UNL1       -0.0898
      6 C          61.6550   86.4981    9.6690 C.ar    1  UNL1        0.0252
      7 C          60.4895   86.2648    8.7541 C.ar    1  UNL1        0.0036
      8 C          59.6901   87.4280    8.2463 C.ar    1  UNL1        0.0207
      9 C          60.0562   88.8245    8.6534 C.ar    1  UNL1        0.0989
     10 N          61.2217   89.0578    9.5683 N.ar    1  UNL1       -0.2423
     11 C          62.0211   87.8946   10.0761 C.ar    1  UNL1        0.0993
     12 C          63.7925   82.8939   12.8818 C.3     1  UNL1        0.1057
     13 C          61.8216   81.4690   13.7956 C.3     1  UNL1        0.0899
     14 N          62.7545   82.6355   13.9333 N.3     1  UNL1       -0.2661
     15 C          62.6494   83.5436   15.1226 C.3     1  UNL1        0.0899
@<TRIPOS>BOND
     1    13    14    1
     2    14    15    1
     3    14    12    1
     4    12     1    1
     5     1     2   ar
     6     2     3   ar
     7     3     4   ar
     8     4     6    1
     9     6     7   ar
    10     7     8   ar
    11     8     9   ar
    12     9    10   ar
    13    10    11   ar
    14     4     5   ar
    15     5     1   ar
    16    11     6   ar
@<TRIPOS>MOLECULE
*****
 15 16 0 0 0
SMALL
GASTEIGER

@<TRIPOS>ATOM
      1 C          63.4344   83.6252   11.6297 C.ar    1  UNL1        0.0234
      2 C          63.9170   83.3936   10.2284 C.ar    1  UNL1        0.0040
      3 C          63.3231   84.4564    9.3521 C.ar    1  UNL1        0.0067
      4 C          62.4735   85.3448   10.2118 C.ar    1  UNL1        0.0307
      5 S          62.5423   84.8310   11.6194 S.2     1  UNL1       -0.0898
      6 C          61.6923   86.5375    9.7457 C.ar    1  UNL1        0.0252
      7 C          62.1008   87.9157   10.1741 C.ar    1  UNL1        0.0036
      8 C          61.3196   89.1084    9.7080 C.ar    1  UNL1        0.0207
      9 C          60.1299   88.9228    8.8135 C.ar    1  UNL1        0.0989
     10 N          59.7214   87.5445    8.3851 N.ar    1  UNL1       -0.2423
     11 C          60.5026   86.3519    8.8513 C.ar    1  UNL1        0.0993
     12 C          63.7827   82.7963   12.8304 C.3     1  UNL1        0.1057
     13 C          62.6838   83.4419   15.0944 C.3     1  UNL1        0.0899
     14 N          62.7542   82.5463   13.8931 N.3     1  UNL1       -0.2661
     15 C          61.7960   81.4006   13.7547 C.3     1  UNL1        0.0899
@<TRIPOS>BOND
     1    13    14    1
     2    14    15    1
     3    14    12    1
     4    12     1    1
     5     1     2   ar
     6     2     3   ar
     7     3     4   ar
     8     4     6    1
     9     6     7   ar
    10     7     8   ar
    11     8     9   ar
    12     9    10   ar
    13    10    11   ar
    14     4     5   ar
    15     5     1   ar
    16    11     6   ar
@<TRIPOS>MOLECULE
*****
 15 16 0 0 0
SMALL
GASTEIGER

@<TRIPOS>ATOM
      1 C          61.6317   86.6957    9.5400 C.ar    1  UNL1        0.0234
      2 C          62.5810   85.9620    8.6396 C.ar    1  UNL1        0.0040
      3 C          63.1263   84.7887    9.3985 C.ar    1  UNL1        0.0067
      4 C          62.5142   84.7973   10.7679 C.ar    1  UNL1        0.0307
      5 S          61.5905   85.9759   10.8553 S.2     1  UNL1       -0.0898
      6 C          62.7792   83.8019   11.8584 C.ar    1  UNL1        0.0252
      7 C          62.8410   82.3377   11.5386 C.ar    1  UNL1        0.0036
      8 C          63.1060   81.3425   12.6291 C.ar    1  UNL1        0.0207
      9 C          63.3092   81.8114   14.0394 C.ar    1  UNL1        0.0989
     10 N          63.2474   83.2756   14.3591 N.ar    1  UNL1       -0.2423
     11 C          62.9824   84.2709   13.2686 C.ar    1  UNL1        0.0993
     12 C          60.8594   87.9322    9.1869 C.3     1  UNL1        0.1057
     13 C          59.5562   89.1038    7.2689 C.3     1  UNL1        0.0899
     14 N          59.8243   87.8858    8.1023 N.3     1  UNL1       -0.2661
     15 C          59.0573   86.6215    7.8512 C.3     1  UNL1        0.0899
@<TRIPOS>BOND
     1    13    14    1
     2    14    15    1
     3    14    12    1
     4    12     1    1
     5     1     2   ar
     6     2     3   ar
     7     3     4   ar
     8     4     6    1
     9     6     7   ar
    10     7     8   ar
    11     8     9   ar
    12     9    10   ar
    13    10    11   ar
    14     4     5   ar
    15     5     1   ar
    16    11     6   ar
@<TRIPOS>MOLECULE
*****
 15 16 0 0 0
SMALL
GASTEIGER

@<TRIPOS>ATOM
      1 C          63.2534   90.6127   11.6503 C.ar    1  UNL1        0.0234
      2 C          63.1835   89.5411   12.6977 C.ar    1  UNL1        0.0040
      3 C          64.2290   89.8352   13.7322 C.ar    1  UNL1        0.0067
      4 C          64.9451   91.0886   13.3243 C.ar    1  UNL1        0.0307
      5 S          64.3422   91.5690   12.0376 S.2     1  UNL1       -0.0898
      6 C          66.0673   91.7460   14.0718 C.ar    1  UNL1        0.0252
      7 C          65.8668   92.1842   15.4923 C.ar    1  UNL1        0.0036
      8 C          66.9889   92.8416   16.2397 C.ar    1  UNL1        0.0207
      9 C          68.3114   93.0607   15.5667 C.ar    1  UNL1        0.0989
     10 N          68.5119   92.6225   14.1463 N.ar    1  UNL1       -0.2423
     11 C          67.3898   91.9651   13.3988 C.ar    1  UNL1        0.0993
     12 C          62.3867   90.7107   10.4300 C.3     1  UNL1        0.1057
     13 C          59.9229   90.4646   11.2169 C.3     1  UNL1        0.0899
     14 N          61.0740   89.9865   10.3823 N.3     1  UNL1       -0.2661
     15 C          60.9123   88.7843    9.4999 C.3     1  UNL1        0.0899
@<TRIPOS>BOND
     1    13    14    1
     2    14    15    1
     3    14    12    1
     4    12     1    1
     5     1     2   ar
     6     2     3   ar
     7     3     4   ar
     8     4     6    1
     9     6     7   ar
    10     7     8   ar
    11     8     9   ar
    12     9    10   ar
    13    10    11   ar
    14     4     5   ar
    15     5     1   ar
    16    11     6   ar
@<TRIPOS>MOLECULE
*****
 15 16 0 0 0
SMALL
GASTEIGER

@<TRIPOS>ATOM
      1 C          63.5830   90.0869   12.5255 C.ar    1  UNL1        0.0234
      2 C          63.6390   91.1609   11.4797 C.ar    1  UNL1        0.0040
      3 C          62.8632   90.6870   10.2866 C.ar    1  UNL1        0.0067
      4 C          62.3277   89.3202   10.5949 C.ar    1  UNL1        0.0307
      5 S          62.7725   88.9493   11.9786 S.2     1  UNL1       -0.0898
      6 C          61.4937   88.4730    9.6801 C.ar    1  UNL1        0.0252
      7 C          61.8608   87.0378    9.4448 C.ar    1  UNL1        0.0036
      8 C          61.0269   86.1907    8.5300 C.ar    1  UNL1        0.0207
      9 C          59.8259   86.7787    7.8505 C.ar    1  UNL1        0.0989
     10 N          59.4588   88.2139    8.0858 N.ar    1  UNL1       -0.2423
     11 C          60.2927   89.0610    9.0006 C.ar    1  UNL1        0.0993
     12 C          64.2247   90.1410   13.8802 C.3     1  UNL1        0.1057
     13 C          64.3925   87.6776   14.6884 C.3     1  UNL1        0.0899
     14 N          63.9162   89.0843   14.8990 N.3     1  UNL1       -0.2661
     15 C          63.1313   89.4342   16.1284 C.3     1  UNL1        0.0899
@<TRIPOS>BOND
     1    13    14    1
     2    14    15    1
     3    14    12    1
     4    12     1    1
     5     1     2   ar
     6     2     3   ar
     7     3     4   ar
     8     4     6    1
     9     6     7   ar
    10     7     8   ar
    11     8     9   ar
    12     9    10   ar
    13    10    11   ar
    14     4     5   ar
    15     5     1   ar
    16    11     6   ar
@<TRIPOS>MOLECULE
*****
 15 16 0 0 0
SMALL
GASTEIGER

@<TRIPOS>ATOM
      1 C          61.5906   86.8550    9.6638 C.ar    1  UNL1        0.0234
      2 C          62.4831   86.0999    8.7239 C.ar    1  UNL1        0.0040
      3 C          63.0244   84.9077    9.4559 C.ar    1  UNL1        0.0067
      4 C          62.4664   84.9261   10.8482 C.ar    1  UNL1        0.0307
      5 S          61.5803   86.1295   10.9767 S.2     1  UNL1       -0.0898
      6 C          62.7456   83.9179   11.9233 C.ar    1  UNL1        0.0252
      7 C          62.7419   84.3368   13.3636 C.ar    1  UNL1        0.0036
      8 C          63.0211   83.3286   14.4385 C.ar    1  UNL1        0.0207
      9 C          63.3040   81.9015   14.0732 C.ar    1  UNL1        0.0989
     10 N          63.3077   81.4826   12.6330 N.ar    1  UNL1       -0.2423
     11 C          63.0285   82.4908   11.5580 C.ar    1  UNL1        0.0993
     12 C          60.8402   88.1144    9.3465 C.3     1  UNL1        0.1057
     13 C          62.5697   89.7999   10.3046 C.3     1  UNL1        0.0899
     14 N          61.1456   89.3781   10.0946 N.3     1  UNL1       -0.2661
     15 C          60.0269   90.2201   10.6328 C.3     1  UNL1        0.0899
@<TRIPOS>BOND
     1    13    14    1
     2    14    15    1
     3    14    12    1
     4    12     1    1
     5     1     2   ar
     6     2     3   ar
     7     3     4   ar
     8     4     6    1
     9     6     7   ar
    10     7     8   ar
    11     8     9   ar
    12     9    10   ar
    13    10    11   ar
    14     4     5   ar
    15     5     1   ar
    16    11     6   ar
@<TRIPOS>MOLECULE
*****
 15 16 0 0 0
SMALL
GASTEIGER

@<TRIPOS>ATOM
      1 C          63.8629   84.4170   14.0216 C.ar    1  UNL1        0.0234
      2 C          64.4240   83.2252   13.3040 C.ar    1  UNL1        0.0040
      3 C          64.0072   83.3117   11.8657 C.ar    1  UNL1        0.0067
      4 C          63.1886   84.5569   11.6943 C.ar    1  UNL1        0.0307
      5 S          63.0994   85.2400   13.0268 S.2     1  UNL1       -0.0898
      6 C          62.5681   85.0350   10.4151 C.ar    1  UNL1        0.0252
      7 C          63.1905   84.6742    9.0989 C.ar    1  UNL1        0.0036
      8 C          62.5700   85.1523    7.8197 C.ar    1  UNL1        0.0207
      9 C          61.3271   85.9912    7.8567 C.ar    1  UNL1        0.0989
     10 N          60.7046   86.3520    9.1729 N.ar    1  UNL1       -0.2423
     11 C          61.3252   85.8739   10.4521 C.ar    1  UNL1        0.0993
     12 C          64.0351   84.7307   15.4783 C.3     1  UNL1        0.1057
     13 C          64.0717   87.3284   15.4533 C.3     1  UNL1        0.0899
     14 N          63.5539   86.0420   16.0251 N.3     1  UNL1       -0.2661
     15 C          62.5548   86.0668   17.1437 C.3     1  UNL1        0.0899
@<TRIPOS>BOND
     1    13    14    1
     2    14    15    1
     3    14    12    1
     4    12     1    1
     5     1     2   ar
     6     2     3   ar
     7     3     4   ar
     8     4     6    1
     9     6     7   ar
    10     7     8   ar
    11     8     9   ar
    12     9    10   ar
    13    10    11   ar
    14     4     5   ar
    15     5     1   ar
    16    11     6   ar
@<TRIPOS>MOLECULE
*****
 15 16 0 0 0
SMALL
GASTEIGER

@<TRIPOS>ATOM
      1 C          63.4890   83.6183   13.3499 C.ar    1  UNL1        0.0234
      2 C          64.0795   84.7924   14.0730 C.ar    1  UNL1        0.0040
      3 C          63.6550   86.0396   13.3559 C.ar    1  UNL1        0.0067
      4 C          62.8022   85.6364   12.1897 C.ar    1  UNL1        0.0307
      5 S          62.6996   84.1399   12.1860 S.2     1  UNL1       -0.0898
      6 C          62.1640   86.5664   11.2008 C.ar    1  UNL1        0.0252
      7 C          61.2894   86.0185   10.1122 C.ar    1  UNL1        0.0036
      8 C          60.6513   86.9485    9.1234 C.ar    1  UNL1        0.0207
      9 C          60.8877   88.4264    9.2231 C.ar    1  UNL1        0.0989
     10 N          61.7622   88.9743   10.3116 N.ar    1  UNL1       -0.2423
     11 C          62.4003   88.0443   11.3005 C.ar    1  UNL1        0.0993
     12 C          63.6582   82.1758   13.7249 C.3     1  UNL1        0.1057
     13 C          62.7872   80.2401   12.2267 C.3     1  UNL1        0.0899
     14 N          62.5907   81.1806   13.3786 N.3     1  UNL1       -0.2661
     15 C          61.3266   81.1260   14.1842 C.3     1  UNL1        0.0899
@<TRIPOS>BOND
     1    13    14    1
     2    14    15    1
     3    14    12    1
     4    12     1    1
     5     1     2   ar
     6     2     3   ar
     7     3     4   ar
     8     4     6    1
     9     6     7   ar
    10     7     8   ar
    11     8     9   ar
    12     9    10   ar
    13    10    11   ar
    14     4     5   ar
    15     5     1   ar
    16    11     6   ar
