@<TRIPOS>MOLECULE
*****
 34 38 0 0 0
SMALL
GASTEIGER

@<TRIPOS>ATOM
      1 C          60.9883   87.0798    9.3896 C.3     1  UNL1        0.1350
      2 C          61.7737   86.4106   10.4782 C.3     1  UNL1        0.1231
      3 N          62.3849   87.2311   11.5751 N.am    1  UNL1       -0.2724
      4 C          63.1704   86.5618   12.6637 C.2     1  UNL1        0.2506
      5 O          63.7816   87.3824   13.7606 O.2     1  UNL1       -0.2699
      6 C          62.2107   88.7209   11.5833 C.3     1  UNL1        0.1096
      7 C          61.4253   89.3902   10.4947 C.3     1  UNL1        0.1621
      8 O          60.8141   88.5696    9.3978 O.3     1  UNL1       -0.3527
      9 C          63.3446   85.0720   12.6555 C.ar    1  UNL1        0.0726
     10 C          63.6193   84.3561   11.3663 C.ar    1  UNL1        0.0018
     11 C          63.7936   82.8663   11.3581 C.ar    1  UNL1       -0.0216
     12 C          64.0683   82.1504   10.0689 C.3     1  UNL1        0.0310
     13 C          63.6931   82.0924   12.6391 C.ar    1  UNL1       -0.0026
     14 C          63.4184   82.8082   13.9283 C.ar    1  UNL1        0.0207
     15 C          63.2442   84.2980   13.9365 C.ar    1  UNL1        0.1072
     16 N          62.9695   85.0139   15.2257 N.ar    1  UNL1       -0.1477
     17 N          61.6209   85.2212   15.8492 N.ar    1  UNL1       -0.1447
     18 C          61.8131   85.9836   17.1266 C.ar    1  UNL1        0.1446
     19 C          63.2803   86.2476   17.2927 C.ar    1  UNL1        0.1446
     20 N          63.9950   85.6482   16.1179 N.ar    1  UNL1       -0.1447
     21 C          59.0443   86.6439    7.7220 C.3     1  UNL1        0.0026
     22 C          60.3771   86.2593    8.2927 C.3     1  UNL1        0.0313
     23 C          62.8219   89.5415   12.6802 C.3     1  UNL1        0.0488
     24 C          63.8141   90.6165   12.3487 C.ar    1  UNL1       -0.0189
     25 C          63.7728   91.2877   11.0078 C.ar    1  UNL1       -0.0041
     26 C          64.7650   92.3627   10.6764 C.ar    1  UNL1        0.0013
     27 C          65.7984   92.7667   11.6858 C.ar    1  UNL1        0.0209
     28 C          65.8396   92.0956   13.0266 C.ar    1  UNL1        0.1026
     29 C          64.8475   91.0205   13.3581 C.ar    1  UNL1        0.0167
     30 N          66.8730   92.4996   14.0360 N.ar    1  UNL1       -0.1478
     31 N          66.6027   93.1205   15.3745 N.ar    1  UNL1       -0.1447
     32 C          67.9208   93.3583   16.0499 C.ar    1  UNL1        0.1446
     33 C          69.0057   92.8843   15.1289 C.ar    1  UNL1        0.1446
     34 N          68.3581   92.3536   13.8843 N.ar    1  UNL1       -0.1447
@<TRIPOS>BOND
     1    21    22    1
     2     1    22    1
     3     1     2    1
     4     2     3    1
     5     3     4   am
     6     4     5    2
     7     4     9    1
     8     9    10   ar
     9    10    11   ar
    10    11    12    1
    11    11    13   ar
    12    13    14   ar
    13    14    15   ar
    14    15    16    1
    15    16    17   ar
    16    17    18   ar
    17    18    19   ar
    18    19    20   ar
    19     3     6    1
    20     6    23    1
    21    23    24    1
    22    24    25   ar
    23    25    26   ar
    24    26    27   ar
    25    27    28   ar
    26    28    30    1
    27    30    31   ar
    28    31    32   ar
    29    32    33   ar
    30    33    34   ar
    31    28    29   ar
    32     6     7    1
    33     7     8    1
    34     8     1    1
    35    15     9   ar
    36    20    16   ar
    37    29    24   ar
    38    34    30   ar
@<TRIPOS>MOLECULE
*****
 34 38 0 0 0
SMALL
GASTEIGER

@<TRIPOS>ATOM
      1 C          63.9962   85.5589   13.8130 C.3     1  UNL1        0.1350
      2 C          63.3357   86.2913   12.6828 C.3     1  UNL1        0.1231
      3 N          63.3112   87.7910   12.6736 N.am    1  UNL1       -0.2724
      4 C          62.6506   88.5234   11.5434 C.2     1  UNL1        0.2506
      5 O          62.6261   90.0232   11.5342 O.2     1  UNL1       -0.2699
      6 C          63.9471   88.5584   13.7946 C.3     1  UNL1        0.1096
      7 C          64.6076   87.8260   14.9248 C.3     1  UNL1        0.1621
      8 O          64.6322   86.3262   14.9339 O.3     1  UNL1       -0.3527
      9 C          62.0146   87.7561   10.4224 C.ar    1  UNL1        0.0726
     10 C          62.8211   86.7597    9.6434 C.ar    1  UNL1        0.0018
     11 C          62.1850   85.9923    8.5224 C.ar    1  UNL1       -0.0216
     12 C          62.9914   84.9959    7.7433 C.3     1  UNL1        0.0310
     13 C          60.7426   86.2213    8.1804 C.ar    1  UNL1       -0.0026
     14 C          59.9362   87.2177    8.9595 C.ar    1  UNL1        0.0207
     15 C          60.5722   87.9850   10.0805 C.ar    1  UNL1        0.1072
     16 N          59.7657   88.9814   10.8595 N.ar    1  UNL1       -0.1477
     17 N          59.5441   90.4183   10.4900 N.ar    1  UNL1       -0.1447
     18 C          58.6807   91.0408   11.5470 C.ar    1  UNL1        0.1446
     19 C          58.3688   89.9887   12.5696 C.ar    1  UNL1        0.1446
     20 N          59.0393   88.7160   12.1447 N.ar    1  UNL1       -0.1447
     21 C          64.2267   83.3045   12.5423 C.3     1  UNL1        0.0026
     22 C          64.0207   84.0591   13.8222 C.3     1  UNL1        0.0313
     23 C          63.9226   90.0582   13.7854 C.3     1  UNL1        0.0488
     24 C          65.2082   90.8290   13.7291 C.ar    1  UNL1       -0.0189
     25 C          66.1295   90.8384   14.9129 C.ar    1  UNL1       -0.0041
     26 C          67.4151   91.6091   14.8566 C.ar    1  UNL1        0.0013
     27 C          67.7794   92.3706   13.6166 C.ar    1  UNL1        0.0209
     28 C          66.8581   92.3612   12.4329 C.ar    1  UNL1        0.1026
     29 C          65.5725   91.5904   12.4892 C.ar    1  UNL1        0.0167
     30 N          67.2224   93.1226   11.1930 N.ar    1  UNL1       -0.1478
     31 N          66.9418   94.5733   10.9347 N.ar    1  UNL1       -0.1447
     32 C          67.4772   94.9143    9.5757 C.ar    1  UNL1        0.1446
     33 C          68.0888   93.6743    8.9939 C.ar    1  UNL1        0.1446
     34 N          67.9313   92.5670    9.9935 N.ar    1  UNL1       -0.1447
@<TRIPOS>BOND
     1    21    22    1
     2     1    22    1
     3     1     2    1
     4     2     3    1
     5     3     4   am
     6     4     5    2
     7     4     9    1
     8     9    10   ar
     9    10    11   ar
    10    11    12    1
    11    11    13   ar
    12    13    14   ar
    13    14    15   ar
    14    15    16    1
    15    16    17   ar
    16    17    18   ar
    17    18    19   ar
    18    19    20   ar
    19     3     6    1
    20     6    23    1
    21    23    24    1
    22    24    25   ar
    23    25    26   ar
    24    26    27   ar
    25    27    28   ar
    26    28    30    1
    27    30    31   ar
    28    31    32   ar
    29    32    33   ar
    30    33    34   ar
    31    28    29   ar
    32     6     7    1
    33     7     8    1
    34     8     1    1
    35    15     9   ar
    36    20    16   ar
    37    29    24   ar
    38    34    30   ar
@<TRIPOS>MOLECULE
*****
 34 38 0 0 0
SMALL
GASTEIGER

@<TRIPOS>ATOM
      1 C          60.4229   89.3329    9.3457 C.3     1  UNL1        0.1350
      2 C          61.2532   88.2316    9.9354 C.3     1  UNL1        0.1231
      3 N          61.9244   88.4268   11.2626 N.am    1  UNL1       -0.2724
      4 C          62.7547   87.3254   11.8523 C.2     1  UNL1        0.2506
      5 O          63.4260   87.5205   13.1794 O.2     1  UNL1       -0.2699
      6 C          61.7654   89.7232   12.0000 C.3     1  UNL1        0.1096
      7 C          60.9351   90.8245   11.4103 C.3     1  UNL1        0.1621
      8 O          60.2639   90.6293   10.0832 O.3     1  UNL1       -0.3527
      9 C          62.9137   86.0289   11.1148 C.ar    1  UNL1        0.0726
     10 C          62.8159   86.0005    9.6183 C.ar    1  UNL1        0.0018
     11 C          62.9749   84.7039    8.8808 C.ar    1  UNL1       -0.0216
     12 C          62.8771   84.6754    7.3843 C.3     1  UNL1        0.0310
     13 C          63.2318   83.4359    9.6399 C.ar    1  UNL1       -0.0026
     14 C          63.3296   83.4644   11.1364 C.ar    1  UNL1        0.0207
     15 C          63.1706   84.7609   11.8739 C.ar    1  UNL1        0.1072
     16 N          63.2684   84.7894   13.3704 N.ar    1  UNL1       -0.1477
     17 N          64.5297   84.9367   14.1689 N.ar    1  UNL1       -0.1447
     18 C          64.1628   84.9139   15.6232 C.ar    1  UNL1        0.1446
     19 C          62.6749   84.7525   15.7236 C.ar    1  UNL1        0.1446
     20 N          62.1221   84.6755   14.3312 N.ar    1  UNL1       -0.1447
     21 C          59.3314   87.7645    7.5854 C.3     1  UNL1        0.0026
     22 C          59.7517   89.1377    8.0186 C.3     1  UNL1        0.0313
     23 C          62.4367   89.9184   13.3272 C.3     1  UNL1        0.0488
     24 C          63.7673   90.6067   13.4006 C.ar    1  UNL1       -0.0189
     25 C          64.6253   90.4523   14.6213 C.ar    1  UNL1       -0.0041
     26 C          65.9560   91.1406   14.6947 C.ar    1  UNL1        0.0013
     27 C          66.4288   91.9834   13.5475 C.ar    1  UNL1        0.0209
     28 C          65.5709   92.1379   12.3268 C.ar    1  UNL1        0.1026
     29 C          64.2401   91.4495   12.2534 C.ar    1  UNL1        0.0167
     30 N          66.0436   92.9807   11.1796 N.ar    1  UNL1       -0.1478
     31 N          67.1055   92.6055   10.1888 N.ar    1  UNL1       -0.1447
     32 C          67.2557   93.7396    9.2185 C.ar    1  UNL1        0.1446
     33 C          66.2866   94.8157    9.6097 C.ar    1  UNL1        0.1446
     34 N          65.5376   94.3466   10.8217 N.ar    1  UNL1       -0.1447
@<TRIPOS>BOND
     1    21    22    1
     2     1    22    1
     3     1     2    1
     4     2     3    1
     5     3     4   am
     6     4     5    2
     7     4     9    1
     8     9    10   ar
     9    10    11   ar
    10    11    12    1
    11    11    13   ar
    12    13    14   ar
    13    14    15   ar
    14    15    16    1
    15    16    17   ar
    16    17    18   ar
    17    18    19   ar
    18    19    20   ar
    19     3     6    1
    20     6    23    1
    21    23    24    1
    22    24    25   ar
    23    25    26   ar
    24    26    27   ar
    25    27    28   ar
    26    28    30    1
    27    30    31   ar
    28    31    32   ar
    29    32    33   ar
    30    33    34   ar
    31    28    29   ar
    32     6     7    1
    33     7     8    1
    34     8     1    1
    35    15     9   ar
    36    20    16   ar
    37    29    24   ar
    38    34    30   ar
@<TRIPOS>MOLECULE
*****
 34 38 0 0 0
SMALL
GASTEIGER

@<TRIPOS>ATOM
      1 C          61.8198   87.8325    9.7731 C.3     1  UNL1        0.1350
      2 C          62.3825   87.0410   10.9162 C.3     1  UNL1        0.1231
      3 N          62.8672   87.7447   12.1490 N.am    1  UNL1       -0.2724
      4 C          63.4298   86.9531   13.2923 C.2     1  UNL1        0.2506
      5 O          63.9146   87.6568   14.5250 O.2     1  UNL1       -0.2699
      6 C          62.7894   89.2400   12.2386 C.3     1  UNL1        0.1096
      7 C          62.2268   90.0315   11.0955 C.3     1  UNL1        0.1621
      8 O          61.7420   89.3278    9.8627 O.3     1  UNL1       -0.3527
      9 C          63.5077   85.4578   13.2026 C.ar    1  UNL1        0.0726
     10 C          63.8441   84.8013   11.8966 C.ar    1  UNL1        0.0018
     11 C          63.9219   83.3059   11.8070 C.ar    1  UNL1       -0.0216
     12 C          64.2583   82.6493   10.5010 C.3     1  UNL1        0.0310
     13 C          63.6634   82.4672   13.0235 C.ar    1  UNL1       -0.0026
     14 C          63.3270   83.1238   14.3295 C.ar    1  UNL1        0.0207
     15 C          63.2491   84.6191   14.4191 C.ar    1  UNL1        0.1072
     16 N          62.9127   85.2757   15.7251 N.ar    1  UNL1       -0.1477
     17 N          63.8954   85.7167   16.7692 N.ar    1  UNL1       -0.1447
     18 C          63.1246   86.3201   17.9057 C.ar    1  UNL1        0.1446
     19 C          61.6656   86.2520   17.5642 C.ar    1  UNL1        0.1446
     20 N          61.5347   85.6066   16.2165 N.ar    1  UNL1       -0.1447
     21 C          59.8930   86.7342    8.4201 C.3     1  UNL1        0.0026
     22 C          61.3351   87.1288    8.5403 C.3     1  UNL1        0.0313
     23 C          63.2741   89.9437   13.4714 C.3     1  UNL1        0.0488
     24 C          64.5748   90.6904   13.4463 C.ar    1  UNL1       -0.0189
     25 C          65.5603   90.5181   14.5640 C.ar    1  UNL1       -0.0041
     26 C          66.8609   91.2648   14.5389 C.ar    1  UNL1        0.0013
     27 C          67.1762   92.1839   13.3961 C.ar    1  UNL1        0.0209
     28 C          66.1908   92.3562   12.2784 C.ar    1  UNL1        0.1026
     29 C          64.8900   91.6095   12.3035 C.ar    1  UNL1        0.0167
     30 N          66.5060   93.2752   11.1356 N.ar    1  UNL1       -0.1478
     31 N          65.7887   94.5507   10.8062 N.ar    1  UNL1       -0.1447
     32 C          66.4333   95.1439    9.5885 C.ar    1  UNL1        0.1446
     33 C          67.5490   94.2350    9.1654 C.ar    1  UNL1        0.1446
     34 N          67.5940   93.0801   10.1215 N.ar    1  UNL1       -0.1447
@<TRIPOS>BOND
     1    21    22    1
     2     1    22    1
     3     1     2    1
     4     2     3    1
     5     3     4   am
     6     4     5    2
     7     4     9    1
     8     9    10   ar
     9    10    11   ar
    10    11    12    1
    11    11    13   ar
    12    13    14   ar
    13    14    15   ar
    14    15    16    1
    15    16    17   ar
    16    17    18   ar
    17    18    19   ar
    18    19    20   ar
    19     3     6    1
    20     6    23    1
    21    23    24    1
    22    24    25   ar
    23    25    26   ar
    24    26    27   ar
    25    27    28   ar
    26    28    30    1
    27    30    31   ar
    28    31    32   ar
    29    32    33   ar
    30    33    34   ar
    31    28    29   ar
    32     6     7    1
    33     7     8    1
    34     8     1    1
    35    15     9   ar
    36    20    16   ar
    37    29    24   ar
    38    34    30   ar
@<TRIPOS>MOLECULE
*****
 34 38 0 0 0
SMALL
GASTEIGER

@<TRIPOS>ATOM
      1 C          63.1328   85.2332   13.4861 C.3     1  UNL1        0.1350
      2 C          62.6761   85.9839   12.2704 C.3     1  UNL1        0.1231
      3 N          63.0459   87.4272   12.0973 N.am    1  UNL1       -0.2724
      4 C          62.5892   88.1779   10.8816 C.2     1  UNL1        0.2506
      5 O          62.9590   89.6213   10.7085 O.2     1  UNL1       -0.2699
      6 C          63.8724   88.1199   13.1399 C.3     1  UNL1        0.1096
      7 C          64.3291   87.3693   14.3556 C.3     1  UNL1        0.1621
      8 O          63.9593   85.9259   14.5287 O.3     1  UNL1       -0.3527
      9 C          61.7627   87.4852    9.8390 C.ar    1  UNL1        0.0726
     10 C          62.3941   86.4683    8.9350 C.ar    1  UNL1        0.0018
     11 C          61.5675   85.7756    7.8924 C.ar    1  UNL1       -0.0216
     12 C          62.1989   84.7587    6.9884 C.3     1  UNL1        0.0310
     13 C          60.1096   86.0998    7.7538 C.ar    1  UNL1       -0.0026
     14 C          59.4781   87.1167    8.6578 C.ar    1  UNL1        0.0207
     15 C          60.3046   87.8094    9.7004 C.ar    1  UNL1        0.1072
     16 N          59.6732   88.8263   10.6043 N.ar    1  UNL1       -0.1477
     17 N          59.0290   88.5483   11.9302 N.ar    1  UNL1       -0.1447
     18 C          58.5328   89.8500   12.4865 C.ar    1  UNL1        0.1446
     19 C          58.8702   90.9325   11.5044 C.ar    1  UNL1        0.1446
     20 N          59.5750   90.2998   10.3412 N.ar    1  UNL1       -0.1447
     21 C          62.3864   83.2695   15.0146 C.3     1  UNL1        0.0026
     22 C          62.7630   83.7899   13.6592 C.3     1  UNL1        0.0313
     23 C          64.2422   89.5633   12.9668 C.3     1  UNL1        0.0488
     24 C          64.5458   90.4090   14.1679 C.ar    1  UNL1       -0.0189
     25 C          63.5443   90.5208   15.2790 C.ar    1  UNL1       -0.0041
     26 C          63.8479   91.3665   16.4801 C.ar    1  UNL1        0.0013
     27 C          65.1531   92.1003   16.5701 C.ar    1  UNL1        0.0209
     28 C          66.1545   91.9886   15.4591 C.ar    1  UNL1        0.1026
     29 C          65.8509   91.1429   14.2579 C.ar    1  UNL1        0.0167
     30 N          67.4597   92.7224   15.5491 N.ar    1  UNL1       -0.1478
     31 N          68.7091   92.3963   14.7858 N.ar    1  UNL1       -0.1447
     32 C          69.7661   93.3836   15.1832 C.ar    1  UNL1        0.1446
     33 C          69.1700   94.3200   16.1920 C.ar    1  UNL1        0.1446
     34 N          67.7445   93.9114   16.4181 N.ar    1  UNL1       -0.1447
@<TRIPOS>BOND
     1    21    22    1
     2     1    22    1
     3     1     2    1
     4     2     3    1
     5     3     4   am
     6     4     5    2
     7     4     9    1
     8     9    10   ar
     9    10    11   ar
    10    11    12    1
    11    11    13   ar
    12    13    14   ar
    13    14    15   ar
    14    15    16    1
    15    16    17   ar
    16    17    18   ar
    17    18    19   ar
    18    19    20   ar
    19     3     6    1
    20     6    23    1
    21    23    24    1
    22    24    25   ar
    23    25    26   ar
    24    26    27   ar
    25    27    28   ar
    26    28    30    1
    27    30    31   ar
    28    31    32   ar
    29    32    33   ar
    30    33    34   ar
    31    28    29   ar
    32     6     7    1
    33     7     8    1
    34     8     1    1
    35    15     9   ar
    36    20    16   ar
    37    29    24   ar
    38    34    30   ar
