@<TRIPOS>MOLECULE
*****
 38 42 0 0 0
SMALL
GASTEIGER

@<TRIPOS>ATOM
      1 C          61.3775   86.4859   10.3133 C.ar    1  UNL1        0.0354
      2 C          60.6364   86.1172    9.0624 C.ar    1  UNL1        0.0144
      3 C          59.8349   87.1539    8.3323 C.ar    1  UNL1        0.0579
      4 CL         59.0938   86.7853    7.0814 Cl      1  UNL1       -0.0822
      5 C          59.7746   88.5593    8.8533 C.ar    1  UNL1        0.0145
      6 C          60.5158   88.9279   10.1042 C.ar    1  UNL1        0.0384
      7 C          61.3172   87.8912   10.8342 C.ar    1  UNL1        0.1454
      8 N          62.3092   84.6781   15.8501 N.pl3   1  UNL1       -0.3400
      9 C          63.0209   83.9854   14.7259 C.ar    1  UNL1        0.1674
     10 N          63.9797   82.8399   14.8623 N.ar    1  UNL1       -0.0623
     11 O          64.4500   82.4632   13.4887 O.2     1  UNL1       -0.3522
     12 C          63.7819   83.3758   12.5034 C.ar    1  UNL1        0.1781
     13 C          63.8637   83.4717   11.0087 C.ar    1  UNL1        0.0403
     14 C          63.0623   84.5084   10.2787 C.ar    1  UNL1        0.0033
     15 C          62.1790   85.4491   11.0434 C.ar    1  UNL1        0.0033
     16 C          62.0972   85.3533   12.5381 C.ar    1  UNL1        0.0061
     17 C          62.8986   84.3166   13.2680 C.ar    1  UNL1        0.0715
     18 H          62.4554   84.3867   16.7790 H       1  UNL1        0.1438
     19 H          61.6959   85.4242   15.6589 H       1  UNL1        0.1438
     20 O          62.0583   88.2598   12.0852 O.3     1  UNL1       -0.4511
     21 C          63.0007   89.4268   12.0823 C.ar    1  UNL1        0.1748
     22 C          62.9837   90.4017   10.9424 C.ar    1  UNL1        0.0708
     23 C          63.9261   91.5687   10.9394 C.ar    1  UNL1        0.1621
     24 F          63.9092   92.5436    9.7996 F       1  UNL1       -0.2026
     25 C          64.8855   91.7608   12.0765 C.ar    1  UNL1        0.1549
     26 C          64.9025   90.7860   13.2163 C.ar    1  UNL1        0.0553
     27 C          63.9601   89.6190   13.2192 C.ar    1  UNL1        0.1759
     28 F          63.9771   88.6441   14.3591 F       1  UNL1       -0.2009
     29 S          65.8279   92.9278   12.0735 S.O2    1  UNL1        0.0773
     30 O          65.4082   93.2703   13.4723 O.2     1  UNL1       -0.1498
     31 O          66.2477   92.5853   10.6748 O.2     1  UNL1       -0.1498
     32 N          66.7703   94.0948   12.0706 N.pl3   1  UNL1       -0.1925
     33 H          67.3886   94.2302   12.8247 H       1  UNL1        0.1758
     34 C          66.7708   95.0556   10.9186 C.ar    1  UNL1        0.1977
     35 N          67.7809   95.1033    9.8107 N.ar    1  UNL1       -0.1997
     36 C          67.3956   96.2144    8.8797 C.ar    1  UNL1        0.2082
     37 N          66.1474   96.8535    9.4122 N.ar    1  UNL1       -0.1840
     38 S          65.7612   96.1373   10.6723 S.2     1  UNL1        0.0508
@<TRIPOS>BOND
     1     8     9    1
     2     9    10   ar
     3    10    11   ar
     4    11    12   ar
     5    12    13   ar
     6    13    14   ar
     7    14    15   ar
     8    15     1    1
     9     1     2   ar
    10     2     3   ar
    11     3     4    1
    12     3     5   ar
    13     5     6   ar
    14     6     7   ar
    15     7    20    1
    16    20    21    1
    17    21    22   ar
    18    22    23   ar
    19    23    24    1
    20    23    25   ar
    21    25    29    1
    22    29    30    2
    23    29    31    2
    24    29    32    1
    25    32    34    1
    26    34    35   ar
    27    35    36   ar
    28    36    37   ar
    29    37    38   ar
    30    25    26   ar
    31    26    27   ar
    32    27    28    1
    33    15    16   ar
    34    16    17   ar
    35    17     9   ar
    36    17    12   ar
    37     7     1   ar
    38    27    21   ar
    39    38    34   ar
    40     8    18    1
    41     8    19    1
    42    32    33    1
@<TRIPOS>MOLECULE
*****
 38 42 0 0 0
SMALL
GASTEIGER

@<TRIPOS>ATOM
      1 C          63.7706   91.1610   11.3907 C.ar    1  UNL1        0.0354
      2 C          64.6448   91.8866   10.4113 C.ar    1  UNL1        0.0144
      3 C          65.8312   92.6647   10.8982 C.ar    1  UNL1        0.0579
      4 CL         66.7055   93.3903    9.9189 Cl      1  UNL1       -0.0822
      5 C          66.1433   92.7173   12.3644 C.ar    1  UNL1        0.0145
      6 C          65.2689   91.9917   13.3438 C.ar    1  UNL1        0.0384
      7 C          64.0826   91.2136   12.8569 C.ar    1  UNL1        0.1454
      8 N          62.6171   86.0386    8.7033 N.pl3   1  UNL1       -0.3400
      9 C          61.4783   86.9422    9.0730 C.ar    1  UNL1        0.1674
     10 N          60.0236   86.6744    8.8241 N.ar    1  UNL1       -0.0623
     11 O          59.2406   87.8390    9.3539 O.2     1  UNL1       -0.3522
     12 C          60.2114   88.8266    9.9302 C.ar    1  UNL1        0.1781
     13 C          60.0148   90.1589   10.5906 C.ar    1  UNL1        0.0403
     14 C          61.2012   90.9370   11.0774 C.ar    1  UNL1        0.0033
     15 C          62.5842   90.3828   10.9038 C.ar    1  UNL1        0.0033
     16 C          62.7808   89.0505   10.2434 C.ar    1  UNL1        0.0061
     17 C          61.5944   88.2724    9.7566 C.ar    1  UNL1        0.0715
     18 H          62.4390   85.1807    8.2544 H       1  UNL1        0.1438
     19 H          63.5426   86.3034    8.9095 H       1  UNL1        0.1438
     20 O          63.2083   90.4880   13.8363 O.3     1  UNL1       -0.4511
     21 C          63.4106   89.0216   14.0792 C.ar    1  UNL1        0.1748
     22 C          63.3608   88.0574   12.9312 C.ar    1  UNL1        0.0708
     23 C          63.5631   86.5911   13.1741 C.ar    1  UNL1        0.1621
     24 F          63.5133   85.6268   12.0262 F       1  UNL1       -0.2026
     25 C          63.8151   86.0890   14.5650 C.ar    1  UNL1        0.1549
     26 C          63.8649   87.0532   15.7129 C.ar    1  UNL1        0.0553
     27 C          63.6626   88.5195   15.4700 C.ar    1  UNL1        0.1759
     28 F          63.7124   89.4838   16.6179 F       1  UNL1       -0.2009
     29 S          64.0174   84.6227   14.8078 S.O2    1  UNL1        0.0773
     30 O          65.4834   84.7791   14.5314 O.2     1  UNL1       -0.1498
     31 O          62.5514   84.4662   15.0843 O.2     1  UNL1       -0.1498
     32 N          64.2197   83.1564   15.0507 N.pl3   1  UNL1       -0.1925
     33 H          64.7508   82.8539   15.8225 H       1  UNL1        0.1758
     34 C          63.6127   82.1508   14.1176 C.ar    1  UNL1        0.1977
     35 N          62.6829   81.0388   14.5034 N.ar    1  UNL1       -0.1997
     36 C          62.3245   80.2815   13.2592 C.ar    1  UNL1        0.2082
     37 N          63.0329   80.9256   12.1044 N.ar    1  UNL1       -0.1840
     38 S          63.8290   82.0808   12.6350 S.2     1  UNL1        0.0508
@<TRIPOS>BOND
     1     8     9    1
     2     9    10   ar
     3    10    11   ar
     4    11    12   ar
     5    12    13   ar
     6    13    14   ar
     7    14    15   ar
     8    15     1    1
     9     1     2   ar
    10     2     3   ar
    11     3     4    1
    12     3     5   ar
    13     5     6   ar
    14     6     7   ar
    15     7    20    1
    16    20    21    1
    17    21    22   ar
    18    22    23   ar
    19    23    24    1
    20    23    25   ar
    21    25    29    1
    22    29    30    2
    23    29    31    2
    24    29    32    1
    25    32    34    1
    26    34    35   ar
    27    35    36   ar
    28    36    37   ar
    29    37    38   ar
    30    25    26   ar
    31    26    27   ar
    32    27    28    1
    33    15    16   ar
    34    16    17   ar
    35    17     9   ar
    36    17    12   ar
    37     7     1   ar
    38    27    21   ar
    39    38    34   ar
    40     8    18    1
    41     8    19    1
    42    32    33    1
@<TRIPOS>MOLECULE
*****
 38 42 0 0 0
SMALL
GASTEIGER

@<TRIPOS>ATOM
      1 C          61.7558   86.2942   10.2967 C.ar    1  UNL1        0.0354
      2 C          60.9079   86.3210    9.0596 C.ar    1  UNL1        0.0144
      3 C          60.1763   87.5740    8.6788 C.ar    1  UNL1        0.0579
      4 CL         59.3284   87.6008    7.4418 Cl      1  UNL1       -0.0822
      5 C          60.2927   88.8000    9.5351 C.ar    1  UNL1        0.0145
      6 C          61.1407   88.7731   10.7722 C.ar    1  UNL1        0.0384
      7 C          61.8722   87.5202   11.1529 C.ar    1  UNL1        0.1454
      8 N          62.3542   82.7463   14.9706 N.pl3   1  UNL1       -0.3400
      9 C          63.0991   82.4244   13.7090 C.ar    1  UNL1        0.1674
     10 N          64.0140   81.2543   13.4994 N.ar    1  UNL1       -0.0623
     11 O          64.5402   81.3230   12.0964 O.2     1  UNL1       -0.3522
     12 C          63.9506   82.5354   11.4390 C.ar    1  UNL1        0.1781
     13 C          64.1097   83.1076   10.0616 C.ar    1  UNL1        0.0403
     14 C          63.3781   84.3605    9.6808 C.ar    1  UNL1        0.0033
     15 C          62.4874   85.0412   10.6775 C.ar    1  UNL1        0.0033
     16 C          62.3284   84.4691   12.0549 C.ar    1  UNL1        0.0061
     17 C          63.0600   83.2162   12.4356 C.ar    1  UNL1        0.0715
     18 H          62.4449   82.1627   15.7583 H       1  UNL1        0.1438
     19 H          61.7746   83.5411   15.0109 H       1  UNL1        0.1438
     20 O          62.7202   87.4934   12.3900 O.3     1  UNL1       -0.4511
     21 C          63.4587   88.7261   12.8199 C.ar    1  UNL1        0.1748
     22 C          63.4441   89.9499   11.9526 C.ar    1  UNL1        0.0708
     23 C          64.1827   91.1827   12.3826 C.ar    1  UNL1        0.1621
     24 F          64.1682   92.4064   11.5153 F       1  UNL1       -0.2026
     25 C          64.9359   91.1916   13.6798 C.ar    1  UNL1        0.1549
     26 C          64.9504   89.9679   14.5470 C.ar    1  UNL1        0.0553
     27 C          64.2118   88.7351   14.1171 C.ar    1  UNL1        0.1759
     28 F          64.2264   87.5114   14.9844 F       1  UNL1       -0.2009
     29 S          65.6744   92.4244   14.1097 S.O2    1  UNL1        0.0773
     30 O          64.9330   92.4138   15.4137 O.2     1  UNL1       -0.1498
     31 O          66.4158   92.4350   12.8058 O.2     1  UNL1       -0.1498
     32 N          66.4130   93.6571   14.5397 N.pl3   1  UNL1       -0.1925
     33 H          66.0402   94.5473   14.3451 H       1  UNL1        0.1758
     34 C          67.7196   93.5336   15.2661 C.ar    1  UNL1        0.1977
     35 N          68.5936   94.6698   15.7079 N.ar    1  UNL1       -0.1997
     36 C          69.7957   94.0906   16.3931 C.ar    1  UNL1        0.2082
     37 N          69.6646   92.5964   16.3748 N.ar    1  UNL1       -0.1840
     38 S          68.3815   92.2522   15.6783 S.2     1  UNL1        0.0508
@<TRIPOS>BOND
     1     8     9    1
     2     9    10   ar
     3    10    11   ar
     4    11    12   ar
     5    12    13   ar
     6    13    14   ar
     7    14    15   ar
     8    15     1    1
     9     1     2   ar
    10     2     3   ar
    11     3     4    1
    12     3     5   ar
    13     5     6   ar
    14     6     7   ar
    15     7    20    1
    16    20    21    1
    17    21    22   ar
    18    22    23   ar
    19    23    24    1
    20    23    25   ar
    21    25    29    1
    22    29    30    2
    23    29    31    2
    24    29    32    1
    25    32    34    1
    26    34    35   ar
    27    35    36   ar
    28    36    37   ar
    29    37    38   ar
    30    25    26   ar
    31    26    27   ar
    32    27    28    1
    33    15    16   ar
    34    16    17   ar
    35    17     9   ar
    36    17    12   ar
    37     7     1   ar
    38    27    21   ar
    39    38    34   ar
    40     8    18    1
    41     8    19    1
    42    32    33    1
@<TRIPOS>MOLECULE
*****
 38 42 0 0 0
SMALL
GASTEIGER

@<TRIPOS>ATOM
      1 C          62.1413   85.1885    9.7654 C.ar    1  UNL1        0.0354
      2 C          62.2296   84.5360    8.4177 C.ar    1  UNL1        0.0144
      3 C          61.5246   85.1448    7.2419 C.ar    1  UNL1        0.0579
      4 CL         61.6130   84.4923    5.8942 Cl      1  UNL1       -0.0822
      5 C          60.7313   86.4062    7.4140 C.ar    1  UNL1        0.0145
      6 C          60.6430   87.0587    8.7618 C.ar    1  UNL1        0.0384
      7 C          61.3479   86.4498    9.9374 C.ar    1  UNL1        0.1454
      8 N          61.5993   84.9503   15.6340 N.pl3   1  UNL1       -0.3400
      9 C          62.7400   84.2321   14.9760 C.ar    1  UNL1        0.1674
     10 N          63.7974   83.4299   15.6749 N.ar    1  UNL1       -0.0623
     11 O          64.7345   82.8921   14.6344 O.2     1  UNL1       -0.3522
     12 C          64.2562   83.3619   13.2925 C.ar    1  UNL1        0.1781
     13 C          64.7839   83.1426   11.9057 C.ar    1  UNL1        0.0403
     14 C          64.0790   83.7514   10.7300 C.ar    1  UNL1        0.0033
     15 C          62.8463   84.5796   10.9412 C.ar    1  UNL1        0.0033
     16 C          62.3186   84.7989   12.3280 C.ar    1  UNL1        0.0061
     17 C          63.0236   84.1901   13.5037 C.ar    1  UNL1        0.0715
     18 H          61.4968   84.9189   16.6127 H       1  UNL1        0.1438
     19 H          60.9531   85.4530   15.0873 H       1  UNL1        0.1438
     20 O          61.2596   87.1023   11.2853 O.3     1  UNL1       -0.4511
     21 C          62.1096   88.2984   11.5966 C.ar    1  UNL1        0.1748
     22 C          63.1144   88.2354   12.7086 C.ar    1  UNL1        0.0708
     23 C          63.9644   89.4314   13.0200 C.ar    1  UNL1        0.1621
     24 F          64.9692   89.3684   14.1319 F       1  UNL1       -0.2026
     25 C          63.8096   90.6904   12.2194 C.ar    1  UNL1        0.1549
     26 C          62.8049   90.7534   11.1074 C.ar    1  UNL1        0.0553
     27 C          61.9549   89.5573   10.7961 C.ar    1  UNL1        0.1759
     28 F          60.9501   89.6203    9.6841 F       1  UNL1       -0.2009
     29 S          64.6597   91.8865   12.5308 S.O2    1  UNL1        0.0773
     30 O          65.1411   91.9141   11.1104 O.2     1  UNL1       -0.1498
     31 O          64.1782   91.8589   13.9511 O.2     1  UNL1       -0.1498
     32 N          65.5097   93.0825   12.8421 N.pl3   1  UNL1       -0.1925
     33 H          65.2515   93.9710   12.5056 H       1  UNL1        0.1758
     34 C          66.7531   92.9249   13.6663 C.ar    1  UNL1        0.1977
     35 N          67.9528   92.1008   13.3034 N.ar    1  UNL1       -0.1997
     36 C          68.9563   92.2302   14.4107 C.ar    1  UNL1        0.2082
     37 N          68.3767   93.1343   15.4580 N.ar    1  UNL1       -0.1840
     38 S          67.0151   93.5636   14.9979 S.2     1  UNL1        0.0508
@<TRIPOS>BOND
     1     8     9    1
     2     9    10   ar
     3    10    11   ar
     4    11    12   ar
     5    12    13   ar
     6    13    14   ar
     7    14    15   ar
     8    15     1    1
     9     1     2   ar
    10     2     3   ar
    11     3     4    1
    12     3     5   ar
    13     5     6   ar
    14     6     7   ar
    15     7    20    1
    16    20    21    1
    17    21    22   ar
    18    22    23   ar
    19    23    24    1
    20    23    25   ar
    21    25    29    1
    22    29    30    2
    23    29    31    2
    24    29    32    1
    25    32    34    1
    26    34    35   ar
    27    35    36   ar
    28    36    37   ar
    29    37    38   ar
    30    25    26   ar
    31    26    27   ar
    32    27    28    1
    33    15    16   ar
    34    16    17   ar
    35    17     9   ar
    36    17    12   ar
    37     7     1   ar
    38    27    21   ar
    39    38    34   ar
    40     8    18    1
    41     8    19    1
    42    32    33    1
@<TRIPOS>MOLECULE
*****
 38 42 0 0 0
SMALL
GASTEIGER

@<TRIPOS>ATOM
      1 C          61.5647   86.5338   10.6705 C.ar    1  UNL1        0.0354
      2 C          61.2657   85.6905    9.4666 C.ar    1  UNL1        0.0144
      3 C          60.5096   86.2751    8.3104 C.ar    1  UNL1        0.0579
      4 CL         60.2105   85.4318    7.1066 Cl      1  UNL1       -0.0822
      5 C          60.0525   87.7030    8.3583 C.ar    1  UNL1        0.0145
      6 C          60.3516   88.5463    9.5622 C.ar    1  UNL1        0.0384
      7 C          61.1076   87.9617   10.7183 C.ar    1  UNL1        0.1454
      8 N          62.1247   81.3632   13.4530 N.pl3   1  UNL1       -0.3400
      9 C          62.9167   82.5421   13.9358 C.ar    1  UNL1        0.1674
     10 N          63.8713   82.5488   15.0927 N.ar    1  UNL1       -0.0623
     11 O          64.4376   83.9321   15.2183 O.2     1  UNL1       -0.3522
     12 C          63.8330   84.7803   14.1389 C.ar    1  UNL1        0.1781
     13 C          64.0169   86.2239   13.7755 C.ar    1  UNL1        0.0403
     14 C          63.2608   86.8084   12.6193 C.ar    1  UNL1        0.0033
     15 C          62.3208   85.9493   11.8267 C.ar    1  UNL1        0.0033
     16 C          62.1369   84.5057   12.1901 C.ar    1  UNL1        0.0061
     17 C          62.8930   83.9212   13.3463 C.ar    1  UNL1        0.0715
     18 H          62.2085   80.4942   13.9081 H       1  UNL1        0.1438
     19 H          61.5211   81.4584   12.6811 H       1  UNL1        0.1438
     20 O          61.4067   88.8050   11.9223 O.3     1  UNL1       -0.4511
     21 C          62.5241   89.8048   11.8789 C.ar    1  UNL1        0.1748
     22 C          63.4628   89.9314   13.0420 C.ar    1  UNL1        0.0708
     23 C          64.5802   90.9312   12.9986 C.ar    1  UNL1        0.1621
     24 F          65.5189   91.0579   14.1616 F       1  UNL1       -0.2026
     25 C          64.7588   91.8044   11.7920 C.ar    1  UNL1        0.1549
     26 C          63.8201   91.6778   10.6290 C.ar    1  UNL1        0.0553
     27 C          62.7027   90.6780   10.6724 C.ar    1  UNL1        0.1759
     28 F          61.7640   90.5513    9.5093 F       1  UNL1       -0.2009
     29 S          65.8762   92.8042   11.7486 S.O2    1  UNL1        0.0773
     30 O          66.3165   92.2546   10.4242 O.2     1  UNL1       -0.1498
     31 O          65.4359   93.3538   13.0730 O.2     1  UNL1       -0.1498
     32 N          66.9935   93.8040   11.7051 N.pl3   1  UNL1       -0.1925
     33 H          67.6889   93.7956   12.4020 H       1  UNL1        0.1758
     34 C          67.0513   94.8166   10.5999 C.ar    1  UNL1        0.1977
     35 N          66.4180   96.1763   10.6159 N.ar    1  UNL1       -0.1997
     36 C          66.7278   96.8473    9.3106 C.ar    1  UNL1        0.2082
     37 N          67.5527   95.9023    8.4880 N.ar    1  UNL1       -0.1840
     38 S          67.7527   94.6473    9.2848 S.2     1  UNL1        0.0508
@<TRIPOS>BOND
     1     8     9    1
     2     9    10   ar
     3    10    11   ar
     4    11    12   ar
     5    12    13   ar
     6    13    14   ar
     7    14    15   ar
     8    15     1    1
     9     1     2   ar
    10     2     3   ar
    11     3     4    1
    12     3     5   ar
    13     5     6   ar
    14     6     7   ar
    15     7    20    1
    16    20    21    1
    17    21    22   ar
    18    22    23   ar
    19    23    24    1
    20    23    25   ar
    21    25    29    1
    22    29    30    2
    23    29    31    2
    24    29    32    1
    25    32    34    1
    26    34    35   ar
    27    35    36   ar
    28    36    37   ar
    29    37    38   ar
    30    25    26   ar
    31    26    27   ar
    32    27    28    1
    33    15    16   ar
    34    16    17   ar
    35    17     9   ar
    36    17    12   ar
    37     7     1   ar
    38    27    21   ar
    39    38    34   ar
    40     8    18    1
    41     8    19    1
    42    32    33    1
@<TRIPOS>MOLECULE
*****
 38 42 0 0 0
SMALL
GASTEIGER

@<TRIPOS>ATOM
      1 C          62.6969   86.1072   12.1552 C.ar    1  UNL1        0.0354
      2 C          63.2415   84.7105   12.1074 C.ar    1  UNL1        0.0144
      3 C          64.2506   84.2637   13.1235 C.ar    1  UNL1        0.0579
      4 CL         64.7952   82.8669   13.0757 Cl      1  UNL1       -0.0822
      5 C          64.7150   85.2138   14.1873 C.ar    1  UNL1        0.0145
      6 C          64.1703   86.6107   14.2350 C.ar    1  UNL1        0.0384
      7 C          63.1612   87.0574   13.2190 C.ar    1  UNL1        0.1454
      8 N          61.0184   84.7476    6.6665 N.pl3   1  UNL1       -0.3400
      9 C          60.3135   85.8546    7.3929 C.ar    1  UNL1        0.1674
     10 N          59.1858   86.6844    6.8546 N.ar    1  UNL1       -0.0623
     11 O          58.7879   87.6688    7.9142 O.2     1  UNL1       -0.3522
     12 C          59.6697   87.4474    9.1073 C.ar    1  UNL1        0.1781
     13 C          59.7359   88.1220   10.4454 C.ar    1  UNL1        0.0403
     14 C          60.7449   87.6752   11.4613 C.ar    1  UNL1        0.0033
     15 C          61.6878   86.5540   11.1392 C.ar    1  UNL1        0.0033
     16 C          61.6216   85.8794    9.8011 C.ar    1  UNL1        0.0061
     17 C          60.6125   86.3262    8.7851 C.ar    1  UNL1        0.0715
     18 H          60.7485   84.5102    5.7500 H       1  UNL1        0.1438
     19 H          61.7509   84.2585    7.1063 H       1  UNL1        0.1438
     20 O          62.6166   88.4542   13.2667 O.3     1  UNL1       -0.4511
     21 C          63.4988   89.6156   12.9163 C.ar    1  UNL1        0.1748
     22 C          63.2869   90.3570   11.6296 C.ar    1  UNL1        0.0708
     23 C          64.1691   91.5184   11.2792 C.ar    1  UNL1        0.1621
     24 F          63.9572   92.2598    9.9926 F       1  UNL1       -0.2026
     25 C          65.2633   91.9384   12.2154 C.ar    1  UNL1        0.1549
     26 C          65.4752   91.1969   13.5020 C.ar    1  UNL1        0.0553
     27 C          64.5930   90.0356   13.8524 C.ar    1  UNL1        0.1759
     28 F          64.8048   89.2941   15.1390 F       1  UNL1       -0.2009
     29 S          66.1456   93.0998   11.8650 S.O2    1  UNL1        0.0773
     30 O          66.5434   92.4134   10.5919 O.2     1  UNL1       -0.1498
     31 O          65.7478   93.7861   13.1380 O.2     1  UNL1       -0.1498
     32 N          67.0278   94.2611   11.5145 N.pl3   1  UNL1       -0.1925
     33 H          67.8533   94.4241   12.0257 H       1  UNL1        0.1758
     34 C          66.6524   95.1743   10.3852 C.ar    1  UNL1        0.1977
     35 N          65.4511   96.0714   10.3388 N.ar    1  UNL1       -0.1997
     36 C          65.4685   96.8021    9.0290 C.ar    1  UNL1        0.2082
     37 N          66.6806   96.3566    8.2658 N.ar    1  UNL1       -0.1840
     38 S          67.4123   95.3506    9.1040 S.2     1  UNL1        0.0508
@<TRIPOS>BOND
     1     8     9    1
     2     9    10   ar
     3    10    11   ar
     4    11    12   ar
     5    12    13   ar
     6    13    14   ar
     7    14    15   ar
     8    15     1    1
     9     1     2   ar
    10     2     3   ar
    11     3     4    1
    12     3     5   ar
    13     5     6   ar
    14     6     7   ar
    15     7    20    1
    16    20    21    1
    17    21    22   ar
    18    22    23   ar
    19    23    24    1
    20    23    25   ar
    21    25    29    1
    22    29    30    2
    23    29    31    2
    24    29    32    1
    25    32    34    1
    26    34    35   ar
    27    35    36   ar
    28    36    37   ar
    29    37    38   ar
    30    25    26   ar
    31    26    27   ar
    32    27    28    1
    33    15    16   ar
    34    16    17   ar
    35    17     9   ar
    36    17    12   ar
    37     7     1   ar
    38    27    21   ar
    39    38    34   ar
    40     8    18    1
    41     8    19    1
    42    32    33    1
@<TRIPOS>MOLECULE
*****
 38 42 0 0 0
SMALL
GASTEIGER

@<TRIPOS>ATOM
      1 C          65.3151   90.8802   14.1129 C.ar    1  UNL1        0.0354
      2 C          66.8066   90.9657   14.2473 C.ar    1  UNL1        0.0144
      3 C          67.5753   91.9742   13.4459 C.ar    1  UNL1        0.0579
      4 CL         69.0668   92.0598   13.5803 Cl      1  UNL1       -0.0822
      5 C          66.8524   92.8971   12.5101 C.ar    1  UNL1        0.0145
      6 C          65.3608   92.8115   12.3757 C.ar    1  UNL1        0.0384
      7 C          64.5922   91.8031   13.1771 C.ar    1  UNL1        0.1454
      8 N          64.4844   85.0431   14.2848 N.pl3   1  UNL1       -0.3400
      9 C          63.7781   85.9112   15.2836 C.ar    1  UNL1        0.1674
     10 N          62.8487   85.4381   16.3617 N.ar    1  UNL1       -0.0623
     11 O          62.3735   86.6393   17.1240 O.2     1  UNL1       -0.3522
     12 C          63.0092   87.8549   16.5170 C.ar    1  UNL1        0.1781
     13 C          62.9097   89.3133   16.8531 C.ar    1  UNL1        0.0403
     14 C          63.6783   90.3217   16.0517 C.ar    1  UNL1        0.0033
     15 C          64.5465   89.8717   14.9143 C.ar    1  UNL1        0.0033
     16 C          64.6460   88.4132   14.5782 C.ar    1  UNL1        0.0061
     17 C          63.8773   87.4048   15.3795 C.ar    1  UNL1        0.0715
     18 H          64.3548   84.0673   14.3020 H       1  UNL1        0.1438
     19 H          65.0775   85.4491   13.6120 H       1  UNL1        0.1438
     20 O          63.1007   91.7175   13.0427 O.3     1  UNL1       -0.4511
     21 C          62.4863   90.6777   12.1531 C.ar    1  UNL1        0.1748
     22 C          61.2341   89.9704   12.5800 C.ar    1  UNL1        0.0708
     23 C          60.6197   88.9306   11.6904 C.ar    1  UNL1        0.1621
     24 F          59.3677   88.2234   12.1172 F       1  UNL1       -0.2026
     25 C          61.2574   88.5981   10.3740 C.ar    1  UNL1        0.1549
     26 C          62.5095   89.3053    9.9472 C.ar    1  UNL1        0.0553
     27 C          63.1239   90.3451   10.8368 C.ar    1  UNL1        0.1759
     28 F          64.3759   91.0523   10.4100 F       1  UNL1       -0.2009
     29 S          60.6430   87.5583    9.4844 S.O2    1  UNL1        0.0773
     30 O          60.3011   88.6191    8.4806 O.2     1  UNL1       -0.1498
     31 O          60.9850   86.4974   10.4883 O.2     1  UNL1       -0.1498
     32 N          60.0286   86.5185    8.5949 N.pl3   1  UNL1       -0.1925
     33 H          59.0525   86.3904    8.5888 H       1  UNL1        0.1758
     34 C          60.9015   85.6738    7.7146 C.ar    1  UNL1        0.1977
     35 N          60.4549   84.9068    6.5053 N.ar    1  UNL1       -0.1997
     36 C          61.6515   84.2069    5.9324 C.ar    1  UNL1        0.2082
     37 N          62.8376   84.5413    6.7876 N.ar    1  UNL1       -0.1840
     38 S          62.3740   85.4479    7.8891 S.2     1  UNL1        0.0508
@<TRIPOS>BOND
     1     8     9    1
     2     9    10   ar
     3    10    11   ar
     4    11    12   ar
     5    12    13   ar
     6    13    14   ar
     7    14    15   ar
     8    15     1    1
     9     1     2   ar
    10     2     3   ar
    11     3     4    1
    12     3     5   ar
    13     5     6   ar
    14     6     7   ar
    15     7    20    1
    16    20    21    1
    17    21    22   ar
    18    22    23   ar
    19    23    24    1
    20    23    25   ar
    21    25    29    1
    22    29    30    2
    23    29    31    2
    24    29    32    1
    25    32    34    1
    26    34    35   ar
    27    35    36   ar
    28    36    37   ar
    29    37    38   ar
    30    25    26   ar
    31    26    27   ar
    32    27    28    1
    33    15    16   ar
    34    16    17   ar
    35    17     9   ar
    36    17    12   ar
    37     7     1   ar
    38    27    21   ar
    39    38    34   ar
    40     8    18    1
    41     8    19    1
    42    32    33    1
@<TRIPOS>MOLECULE
*****
 38 42 0 0 0
SMALL
GASTEIGER

@<TRIPOS>ATOM
      1 C          62.9517   83.6332   13.5944 C.ar    1  UNL1        0.0354
      2 C          62.7254   82.2205   14.0450 C.ar    1  UNL1        0.0144
      3 C          62.7061   81.1068   13.0403 C.ar    1  UNL1        0.0579
      4 CL         62.4798   79.6941   13.4909 Cl      1  UNL1       -0.0822
      5 C          62.9130   81.4058   11.5850 C.ar    1  UNL1        0.0145
      6 C          63.1392   82.8186   11.1345 C.ar    1  UNL1        0.0384
      7 C          63.1586   83.9322   12.1391 C.ar    1  UNL1        0.1454
      8 N          64.4847   89.3212   13.8915 N.pl3   1  UNL1       -0.3400
      9 C          63.9308   88.6491   15.1128 C.ar    1  UNL1        0.1674
     10 N          63.7165   89.2908   16.4515 N.ar    1  UNL1       -0.0623
     11 O          63.1472   88.2556   17.3758 O.2     1  UNL1       -0.3522
     12 C          63.0097   86.9742   16.6083 C.ar    1  UNL1        0.1781
     13 C          62.5061   85.6174   17.0024 C.ar    1  UNL1        0.0403
     14 C          62.4867   84.5037   15.9977 C.ar    1  UNL1        0.0033
     15 C          62.9710   84.7469   14.5990 C.ar    1  UNL1        0.0033
     16 C          63.4747   86.1037   14.2050 C.ar    1  UNL1        0.0061
     17 C          63.4940   87.2174   15.2097 C.ar    1  UNL1        0.0715
     18 H          64.7446   90.2701   13.9269 H       1  UNL1        0.1438
     19 H          64.5883   88.8133   13.0544 H       1  UNL1        0.1438
     20 O          63.3848   85.3450   11.6885 O.3     1  UNL1       -0.4511
     21 C          62.4181   85.9947   10.7434 C.ar    1  UNL1        0.1748
     22 C          61.3528   86.9092   11.2713 C.ar    1  UNL1        0.0708
     23 C          60.3861   87.5589   10.3262 C.ar    1  UNL1        0.1621
     24 F          59.3207   88.4734   10.8541 F       1  UNL1       -0.2026
     25 C          60.4847   87.2940    8.8530 C.ar    1  UNL1        0.1549
     26 C          61.5500   86.3795    8.3251 C.ar    1  UNL1        0.0553
     27 C          62.5167   85.7298    9.2702 C.ar    1  UNL1        0.1759
     28 F          63.5821   84.8154    8.7423 F       1  UNL1       -0.2009
     29 S          59.5180   87.9437    7.9078 S.O2    1  UNL1        0.0773
     30 O          59.1636   86.5988    7.3458 O.2     1  UNL1       -0.1498
     31 O          59.8723   89.2885    8.4697 O.2     1  UNL1       -0.1498
     32 N          58.5513   88.5934    6.9626 N.pl3   1  UNL1       -0.1925
     33 H          57.6307   88.2523    6.8885 H       1  UNL1        0.1758
     34 C          58.9872   89.7627    6.1303 C.ar    1  UNL1        0.1977
     35 N          60.3851   90.0391    5.6617 N.ar    1  UNL1       -0.1997
     36 C          60.3637   91.3081    4.8623 C.ar    1  UNL1        0.2082
     37 N          58.9524   91.8160    4.8367 N.ar    1  UNL1       -0.1840
     38 S          58.1018   90.8609    5.6203 S.2     1  UNL1        0.0508
@<TRIPOS>BOND
     1     8     9    1
     2     9    10   ar
     3    10    11   ar
     4    11    12   ar
     5    12    13   ar
     6    13    14   ar
     7    14    15   ar
     8    15     1    1
     9     1     2   ar
    10     2     3   ar
    11     3     4    1
    12     3     5   ar
    13     5     6   ar
    14     6     7   ar
    15     7    20    1
    16    20    21    1
    17    21    22   ar
    18    22    23   ar
    19    23    24    1
    20    23    25   ar
    21    25    29    1
    22    29    30    2
    23    29    31    2
    24    29    32    1
    25    32    34    1
    26    34    35   ar
    27    35    36   ar
    28    36    37   ar
    29    37    38   ar
    30    25    26   ar
    31    26    27   ar
    32    27    28    1
    33    15    16   ar
    34    16    17   ar
    35    17     9   ar
    36    17    12   ar
    37     7     1   ar
    38    27    21   ar
    39    38    34   ar
    40     8    18    1
    41     8    19    1
    42    32    33    1
@<TRIPOS>MOLECULE
*****
 38 42 0 0 0
SMALL
GASTEIGER

@<TRIPOS>ATOM
      1 C          61.3120   87.1646    9.6300 C.ar    1  UNL1        0.0354
      2 C          60.4902   87.2741    8.3800 C.ar    1  UNL1        0.0144
      3 C          59.6591   88.4983    8.1336 C.ar    1  UNL1        0.0579
      4 CL         58.8373   88.6077    6.8836 Cl      1  UNL1       -0.0822
      5 C          59.6498   89.6130    9.1373 C.ar    1  UNL1        0.0145
      6 C          60.4716   89.5035   10.3874 C.ar    1  UNL1        0.0384
      7 C          61.3027   88.2793   10.6337 C.ar    1  UNL1        0.1454
      8 N          62.6376   83.5156   14.0706 N.pl3   1  UNL1       -0.3400
      9 C          63.2398   83.2702   12.7189 C.ar    1  UNL1        0.1674
     10 N          64.1776   82.1557   12.3606 N.ar    1  UNL1       -0.0623
     11 O          64.5272   82.2929   10.9083 O.2     1  UNL1       -0.3522
     12 C          63.8054   83.4922   10.3691 C.ar    1  UNL1        0.1781
     13 C          63.7700   84.1124    9.0038 C.ar    1  UNL1        0.0403
     14 C          62.9389   85.3365    8.7575 C.ar    1  UNL1        0.0033
     15 C          62.1432   85.9405    9.8764 C.ar    1  UNL1        0.0033
     16 C          62.1786   85.3203   11.2418 C.ar    1  UNL1        0.0061
     17 C          63.0098   84.0962   11.4881 C.ar    1  UNL1        0.0715
     18 H          62.8503   82.9144   14.8207 H       1  UNL1        0.1438
     19 H          62.0298   84.2778   14.2077 H       1  UNL1        0.1438
     20 O          62.1246   88.1698   11.8838 O.3     1  UNL1       -0.4511
     21 C          63.0591   89.2790   12.2665 C.ar    1  UNL1        0.1748
     22 C          63.6543   89.3169   13.6429 C.ar    1  UNL1        0.0708
     23 C          64.5888   90.4260   14.0256 C.ar    1  UNL1        0.1621
     24 F          65.1840   90.4640   15.4019 F       1  UNL1       -0.2026
     25 C          64.9282   91.4973   13.0319 C.ar    1  UNL1        0.1549
     26 C          64.3330   91.4594   11.6556 C.ar    1  UNL1        0.0553
     27 C          63.3984   90.3502   11.2729 C.ar    1  UNL1        0.1759
     28 F          62.8033   90.3123    9.8966 F       1  UNL1       -0.2009
     29 S          65.8627   92.6064   13.4146 S.O2    1  UNL1        0.0773
     30 O          66.5632   92.4715   12.0951 O.2     1  UNL1       -0.1498
     31 O          65.1622   92.7414   14.7341 O.2     1  UNL1       -0.1498
     32 N          66.7972   93.7156   13.7973 N.pl3   1  UNL1       -0.1925
     33 H          66.7053   94.6027   13.3802 H       1  UNL1        0.1758
     34 C          67.8718   93.4732   14.8154 C.ar    1  UNL1        0.1977
     35 N          68.6760   94.5275   15.5166 N.ar    1  UNL1       -0.1997
     36 C          69.6321   93.8399   16.4456 C.ar    1  UNL1        0.2082
     37 N          69.4187   92.3605   16.3186 N.ar    1  UNL1       -0.1840
     38 S          68.3308   92.1339   15.3111 S.2     1  UNL1        0.0508
@<TRIPOS>BOND
     1     8     9    1
     2     9    10   ar
     3    10    11   ar
     4    11    12   ar
     5    12    13   ar
     6    13    14   ar
     7    14    15   ar
     8    15     1    1
     9     1     2   ar
    10     2     3   ar
    11     3     4    1
    12     3     5   ar
    13     5     6   ar
    14     6     7   ar
    15     7    20    1
    16    20    21    1
    17    21    22   ar
    18    22    23   ar
    19    23    24    1
    20    23    25   ar
    21    25    29    1
    22    29    30    2
    23    29    31    2
    24    29    32    1
    25    32    34    1
    26    34    35   ar
    27    35    36   ar
    28    36    37   ar
    29    37    38   ar
    30    25    26   ar
    31    26    27   ar
    32    27    28    1
    33    15    16   ar
    34    16    17   ar
    35    17     9   ar
    36    17    12   ar
    37     7     1   ar
    38    27    21   ar
    39    38    34   ar
    40     8    18    1
    41     8    19    1
    42    32    33    1
