@<TRIPOS>MOLECULE
*****
 44 49 0 0 0
SMALL
GASTEIGER

@<TRIPOS>ATOM
      1 C         138.7136  140.2135  165.1572 C.ar    1  UNL1        0.0479
      2 C         139.4829  141.3691  165.7253 C.ar    1  UNL1        0.0146
      3 C         139.7798  141.4226  167.1946 C.ar    1  UNL1        0.0041
      4 C         139.3074  140.3205  168.0958 C.ar    1  UNL1        0.0348
      5 C         138.5380  139.1649  167.5277 C.ar    1  UNL1        0.0041
      6 C         138.2412  139.1115  166.0584 C.ar    1  UNL1        0.0146
      7 N         137.8227  140.0531  160.7491 N.3     1  UNL1       -0.2698
      8 C         137.7911  141.3664  161.4733 C.3     1  UNL1        0.0938
      9 C         138.0881  141.4197  162.9428 C.3     1  UNL1        0.1081
     10 N         138.4166  140.1600  163.6879 N.pl3   1  UNL1       -0.3046
     11 C         138.4482  138.8468  162.9635 C.3     1  UNL1        0.1081
     12 C         138.1512  138.7934  161.4942 C.3     1  UNL1        0.0938
     13 C         137.5258  139.9996  159.2798 C.3     1  UNL1        0.0722
     14 C         137.9623  141.1216  158.3851 C.3     1  UNL1        0.0177
     15 C         139.3786  141.6131  158.4350 C.3     1  UNL1        0.0061
     16 C         139.6688  143.0234  158.8555 C.3     1  UNL1        0.0277
     17 C         140.5632  144.5602  163.3892 C.2     1  UNL1        0.0507
     18 C         142.0249  144.7647  163.6568 C.2     1  UNL1        0.0078
     19 C         143.0299  144.4968  162.5761 C.2     1  UNL1        0.0191
     20 C         142.5734  144.0243  161.2277 C.2     1  UNL1        0.0774
     21 N         143.3262  143.6810  159.9765 N.2     1  UNL1       -0.2445
     22 C         142.3298  143.2642  158.9356 C.2     1  UNL1        0.0943
     23 C         140.9611  143.3500  159.5434 C.2     1  UNL1       -0.0052
     24 C         141.1117  143.8198  160.9600 C.2     1  UNL1       -0.0019
     25 C         140.1066  144.0877  162.0408 C.3     1  UNL1        0.0643
     26 N         138.5531  145.0960  165.5507 N.1     1  UNL1       -0.1911
     27 C         139.5581  144.8281  164.4700 C.1     1  UNL1        0.0964
     28 C         139.6043  140.3740  169.5652 C.2     1  UNL1        0.1730
     29 O         138.7625  141.2240  170.4700 O.2     1  UNL1       -0.2913
     30 C         140.7431  139.5774  170.1298 C.3     1  UNL1        0.0692
     31 C         142.1526  140.0638  169.9658 C.3     1  UNL1        0.0082
     32 C         142.6497  140.4798  168.6131 C.3     1  UNL1        0.0032
     33 C         142.9409  141.9243  168.3326 C.3     1  UNL1        0.0174
     34 C         143.4381  142.3403  166.9799 C.3     1  UNL1        0.0724
     35 N         143.6440  141.3117  165.9076 N.3     1  UNL1       -0.2690
     36 C         143.3528  139.8673  166.1880 C.3     1  UNL1        0.0724
     37 C         142.8556  139.4513  167.5408 C.3     1  UNL1        0.0174
     38 C         144.1412  141.7277  164.5549 C.3     1  UNL1        0.0991
     39 C         143.5494  141.1187  163.3184 C.ar    1  UNL1       -0.0061
     40 C         144.4449  140.6595  162.2062 C.ar    1  UNL1       -0.0029
     41 C         143.8531  140.0505  160.9697 C.ar    1  UNL1       -0.0003
     42 C         142.3658  139.9007  160.8455 C.ar    1  UNL1       -0.0000
     43 C         141.4703  140.3599  161.9578 C.ar    1  UNL1       -0.0003
     44 C         142.0621  140.9689  163.1942 C.ar    1  UNL1       -0.0029
@<TRIPOS>BOND
     1    26    27    3
     2    27    17    1
     3    17    18    2
     4    18    19    1
     5    19    20    2
     6    20    21    1
     7    21    22    2
     8    22    23    1
     9    23    16    1
    10    16    15    1
    11    15    14    1
    12    14    13    1
    13    13     7    1
    14     7     8    1
    15     8     9    1
    16     9    10    1
    17    10     1    1
    18     1     2   ar
    19     2     3   ar
    20     3     4   ar
    21     4    28    1
    22    28    29    2
    23    28    30    1
    24    30    31    1
    25    31    32    1
    26    32    33    1
    27    33    34    1
    28    34    35    1
    29    35    38    1
    30    38    39    1
    31    39    40   ar
    32    40    41   ar
    33    41    42   ar
    34    42    43   ar
    35    43    44   ar
    36    35    36    1
    37    36    37    1
    38     4     5   ar
    39     5     6   ar
    40    10    11    1
    41    11    12    1
    42    23    24    2
    43    24    25    1
    44    25    17    1
    45    24    20    1
    46    12     7    1
    47     6     1   ar
    48    37    32    1
    49    44    39   ar
@<TRIPOS>MOLECULE
*****
 44 49 0 0 0
SMALL
GASTEIGER

@<TRIPOS>ATOM
      1 C         138.7334  139.3200  161.0857 C.ar    1  UNL1        0.0479
      2 C         139.7271  138.4709  160.3498 C.ar    1  UNL1        0.0146
      3 C         139.8509  138.5829  158.8592 C.ar    1  UNL1        0.0041
      4 C         138.9811  139.5440  158.1044 C.ar    1  UNL1        0.0348
      5 C         137.9874  140.3931  158.8403 C.ar    1  UNL1        0.0041
      6 C         137.8635  140.2811  160.3309 C.ar    1  UNL1        0.0146
      7 N         138.3617  138.9842  165.5578 N.3     1  UNL1       -0.2698
      8 C         138.0268  140.2757  164.8722 C.3     1  UNL1        0.0938
      9 C         138.1507  140.3875  163.3815 C.3     1  UNL1        0.1081
     10 N         138.6095  139.2080  162.5764 N.pl3   1  UNL1       -0.3046
     11 C         138.9443  137.9165  163.2620 C.3     1  UNL1        0.1081
     12 C         138.8204  137.8047  164.7526 C.3     1  UNL1        0.0938
     13 C         138.2378  138.8722  167.0484 C.3     1  UNL1        0.0722
     14 C         139.0730  139.7446  167.9380 C.3     1  UNL1        0.0177
     15 C         140.3649  140.3140  167.4314 C.3     1  UNL1        0.0061
     16 C         140.4443  141.7591  167.0374 C.3     1  UNL1        0.0277
     17 C         141.2501  144.7768  163.3010 C.2     1  UNL1        0.0507
     18 C         142.7058  145.0764  163.0982 C.2     1  UNL1        0.0078
     19 C         143.7314  144.4620  164.0041 C.2     1  UNL1        0.0191
     20 C         143.3012  143.5480  165.1130 C.2     1  UNL1        0.0774
     21 N         144.0779  142.8013  166.1566 N.2     1  UNL1       -0.2445
     22 C         143.1023  142.0403  167.0045 C.2     1  UNL1        0.0943
     23 C         141.7226  142.3166  166.4849 C.2     1  UNL1       -0.0052
     24 C         141.8455  143.2485  165.3159 C.2     1  UNL1       -0.0019
     25 C         140.8200  143.8629  164.4099 C.3     1  UNL1        0.0643
     26 N         139.1991  146.0057  161.4891 N.1     1  UNL1       -0.1911
     27 C         140.2246  145.3912  162.3951 C.1     1  UNL1        0.0964
     28 C         139.1050  139.6560  156.6137 C.2     1  UNL1        0.1730
     29 O         138.6434  138.5305  155.7362 O.2     1  UNL1       -0.2913
     30 C         139.6905  140.8934  156.0005 C.3     1  UNL1        0.0692
     31 C         141.1740  141.1134  156.0263 C.3     1  UNL1        0.0082
     32 C         141.8807  141.3077  157.3350 C.3     1  UNL1        0.0032
     33 C         142.9546  140.3492  157.7570 C.3     1  UNL1        0.0174
     34 C         143.6614  140.5435  159.0658 C.3     1  UNL1        0.0724
     35 N         143.2941  141.6963  159.9526 N.3     1  UNL1       -0.2690
     36 C         142.2202  142.6548  159.5306 C.3     1  UNL1        0.0724
     37 C         141.5136  142.4604  158.2218 C.3     1  UNL1        0.0174
     38 C         144.0009  141.8906  161.2613 C.3     1  UNL1        0.0991
     39 C         143.6811  141.0007  162.4257 C.ar    1  UNL1       -0.0061
     40 C         142.2554  140.6483  162.7310 C.ar    1  UNL1       -0.0029
     41 C         141.9356  139.7584  163.8954 C.ar    1  UNL1       -0.0003
     42 C         143.0415  139.2209  164.7545 C.ar    1  UNL1       -0.0000
     43 C         144.4672  139.5733  164.4492 C.ar    1  UNL1       -0.0003
     44 C         144.7870  140.4632  163.2848 C.ar    1  UNL1       -0.0029
@<TRIPOS>BOND
     1    26    27    3
     2    27    17    1
     3    17    18    2
     4    18    19    1
     5    19    20    2
     6    20    21    1
     7    21    22    2
     8    22    23    1
     9    23    16    1
    10    16    15    1
    11    15    14    1
    12    14    13    1
    13    13     7    1
    14     7     8    1
    15     8     9    1
    16     9    10    1
    17    10     1    1
    18     1     2   ar
    19     2     3   ar
    20     3     4   ar
    21     4    28    1
    22    28    29    2
    23    28    30    1
    24    30    31    1
    25    31    32    1
    26    32    33    1
    27    33    34    1
    28    34    35    1
    29    35    38    1
    30    38    39    1
    31    39    40   ar
    32    40    41   ar
    33    41    42   ar
    34    42    43   ar
    35    43    44   ar
    36    35    36    1
    37    36    37    1
    38     4     5   ar
    39     5     6   ar
    40    10    11    1
    41    11    12    1
    42    23    24    2
    43    24    25    1
    44    25    17    1
    45    24    20    1
    46    12     7    1
    47     6     1   ar
    48    37    32    1
    49    44    39   ar
@<TRIPOS>MOLECULE
*****
 44 49 0 0 0
SMALL
GASTEIGER

@<TRIPOS>ATOM
      1 C         138.6320  139.4875  161.3464 C.ar    1  UNL1        0.0479
      2 C         139.3155  138.4083  160.5602 C.ar    1  UNL1        0.0146
      3 C         139.4206  138.5195  159.0680 C.ar    1  UNL1        0.0041
      4 C         138.8422  139.7099  158.3621 C.ar    1  UNL1        0.0348
      5 C         138.1587  140.7892  159.1483 C.ar    1  UNL1        0.0041
      6 C         138.0537  140.6779  160.6404 C.ar    1  UNL1        0.0146
      7 N         138.3167  139.1539  165.8229 N.3     1  UNL1       -0.2698
      8 C         138.8856  138.0186  165.0245 C.3     1  UNL1        0.0938
      9 C         138.9907  138.1299  163.5323 C.3     1  UNL1        0.1081
     10 N         138.5269  139.3764  162.8385 N.pl3   1  UNL1       -0.3046
     11 C         137.9581  140.5116  163.6371 C.3     1  UNL1        0.1081
     12 C         137.8530  140.4004  165.1292 C.3     1  UNL1        0.0938
     13 C         138.2116  139.0428  167.3151 C.3     1  UNL1        0.0722
     14 C         139.2112  139.7379  168.1912 C.3     1  UNL1        0.0177
     15 C         140.0072  140.8898  167.6533 C.3     1  UNL1        0.0061
     16 C         141.4623  140.7124  167.3351 C.3     1  UNL1        0.0277
     17 C         141.0526  142.1620  162.7039 C.2     1  UNL1        0.0507
     18 C         141.6062  141.1641  161.7304 C.2     1  UNL1        0.0078
     19 C         142.2035  139.8816  162.2290 C.2     1  UNL1        0.0191
     20 C         142.2471  139.5971  163.7011 C.2     1  UNL1        0.0774
     21 N         142.7701  138.4283  164.4824 N.2     1  UNL1       -0.2445
     22 C         142.5398  138.7039  165.9388 C.2     1  UNL1        0.0943
     23 C         141.8744  140.0429  166.0576 C.2     1  UNL1       -0.0052
     24 C         141.6936  140.5950  164.6746 C.2     1  UNL1       -0.0019
     25 C         141.0963  141.8774  164.1760 C.3     1  UNL1        0.0643
     26 N         139.8581  144.7269  161.7067 N.1     1  UNL1       -0.1911
     27 C         140.4553  143.4444  162.2053 C.1     1  UNL1        0.0964
     28 C         138.9473  139.8211  156.8699 C.2     1  UNL1        0.1730
     29 O         137.7484  139.5472  156.0111 O.2     1  UNL1       -0.2913
     30 C         140.2514  140.2061  156.2364 C.3     1  UNL1        0.0692
     31 C         141.5363  139.6343  156.7579 C.3     1  UNL1        0.0082
     32 C         142.4182  140.4597  157.6472 C.3     1  UNL1        0.0032
     33 C         143.5104  139.8032  158.4384 C.3     1  UNL1        0.0174
     34 C         144.3923  140.6286  159.3278 C.3     1  UNL1        0.0724
     35 N         144.1820  142.1106  159.4258 N.3     1  UNL1       -0.2690
     36 C         143.0898  142.7671  158.6346 C.3     1  UNL1        0.0724
     37 C         142.2079  141.9416  157.7453 C.3     1  UNL1        0.0174
     38 C         145.0640  142.9361  160.3152 C.3     1  UNL1        0.0991
     39 C         144.8651  142.9099  161.8017 C.ar    1  UNL1       -0.0061
     40 C         145.3654  141.7462  162.6049 C.ar    1  UNL1       -0.0029
     41 C         145.1665  141.7200  164.0914 C.ar    1  UNL1       -0.0003
     42 C         144.4673  142.8576  164.7747 C.ar    1  UNL1       -0.0000
     43 C         143.9669  144.0214  163.9714 C.ar    1  UNL1       -0.0003
     44 C         144.1658  144.0476  162.4849 C.ar    1  UNL1       -0.0029
@<TRIPOS>BOND
     1    26    27    3
     2    27    17    1
     3    17    18    2
     4    18    19    1
     5    19    20    2
     6    20    21    1
     7    21    22    2
     8    22    23    1
     9    23    16    1
    10    16    15    1
    11    15    14    1
    12    14    13    1
    13    13     7    1
    14     7     8    1
    15     8     9    1
    16     9    10    1
    17    10     1    1
    18     1     2   ar
    19     2     3   ar
    20     3     4   ar
    21     4    28    1
    22    28    29    2
    23    28    30    1
    24    30    31    1
    25    31    32    1
    26    32    33    1
    27    33    34    1
    28    34    35    1
    29    35    38    1
    30    38    39    1
    31    39    40   ar
    32    40    41   ar
    33    41    42   ar
    34    42    43   ar
    35    43    44   ar
    36    35    36    1
    37    36    37    1
    38     4     5   ar
    39     5     6   ar
    40    10    11    1
    41    11    12    1
    42    23    24    2
    43    24    25    1
    44    25    17    1
    45    24    20    1
    46    12     7    1
    47     6     1   ar
    48    37    32    1
    49    44    39   ar
@<TRIPOS>MOLECULE
*****
 44 49 0 0 0
SMALL
GASTEIGER

@<TRIPOS>ATOM
      1 C         139.1891  140.7624  158.8890 C.ar    1  UNL1        0.0479
      2 C         138.3313  141.9867  158.7647 C.ar    1  UNL1        0.0146
      3 C         138.4294  142.8501  157.5421 C.ar    1  UNL1        0.0041
      4 C         139.3851  142.4893  156.4438 C.ar    1  UNL1        0.0348
      5 C         140.2429  141.2650  156.5680 C.ar    1  UNL1        0.0041
      6 C         140.1448  140.4016  157.7907 C.ar    1  UNL1        0.0146
      7 N         138.8950  138.1720  162.5569 N.3     1  UNL1       -0.2698
      8 C         137.7136  138.9843  162.1157 C.3     1  UNL1        0.0938
      9 C         137.8118  139.8478  160.8930 C.3     1  UNL1        0.1081
     10 N         139.0911  139.8989  160.1116 N.pl3   1  UNL1       -0.3046
     11 C         140.2724  139.0866  160.5529 C.3     1  UNL1        0.1081
     12 C         140.1743  138.2232  161.7755 C.3     1  UNL1        0.0938
     13 C         138.7970  137.3085  163.7795 C.3     1  UNL1        0.0722
     14 C         139.1016  137.8843  165.1307 C.3     1  UNL1        0.0177
     15 C         138.2307  138.9652  165.6990 C.3     1  UNL1        0.0061
     16 C         138.5145  140.4029  165.3790 C.3     1  UNL1        0.0277
     17 C         141.3367  141.9820  169.0202 C.2     1  UNL1        0.0507
     18 C         142.7030  142.3962  168.5602 C.2     1  UNL1        0.0078
     19 C         143.0677  142.2974  167.1086 C.2     1  UNL1        0.0191
     20 C         142.0660  141.7843  166.1169 C.2     1  UNL1        0.0774
     21 N         142.1384  141.5763  164.6332 N.2     1  UNL1       -0.2445
     22 C         140.8168  141.0335  164.1762 C.2     1  UNL1        0.0943
     23 C         139.9276  140.9061  165.3774 C.2     1  UNL1       -0.0052
     24 C         140.6997  141.3701  166.5769 C.2     1  UNL1       -0.0019
     25 C         140.3351  141.4689  168.0286 C.3     1  UNL1        0.0643
     26 N         140.6075  142.1797  171.9235 N.1     1  UNL1       -0.1911
     27 C         140.9721  142.0808  170.4719 C.1     1  UNL1        0.0964
     28 C         139.4831  143.3528  155.2212 C.2     1  UNL1        0.1730
     29 O         138.3010  143.4989  154.3095 O.2     1  UNL1       -0.2913
     30 C         140.7633  144.0702  154.9102 C.3     1  UNL1        0.0692
     31 C         141.2161  145.2066  155.7782 C.3     1  UNL1        0.0082
     32 C         141.3267  145.0188  157.2623 C.3     1  UNL1        0.0032
     33 C         142.2908  144.0149  157.8214 C.3     1  UNL1        0.0174
     34 C         142.4014  143.8270  159.3055 C.3     1  UNL1        0.0724
     35 N         141.5478  144.6432  160.2305 N.3     1  UNL1       -0.2690
     36 C         140.5837  145.6471  159.6713 C.3     1  UNL1        0.0724
     37 C         140.4732  145.8348  158.1872 C.3     1  UNL1        0.0174
     38 C         141.6584  144.4554  161.7146 C.3     1  UNL1        0.0991
     39 C         140.4215  144.2569  162.5397 C.ar    1  UNL1       -0.0061
     40 C         140.3677  144.7737  163.9468 C.ar    1  UNL1       -0.0029
     41 C         139.1309  144.5753  164.7719 C.ar    1  UNL1       -0.0003
     42 C         137.9478  143.8601  164.1899 C.ar    1  UNL1       -0.0000
     43 C         138.0015  143.3433  162.7827 C.ar    1  UNL1       -0.0003
     44 C         139.2384  143.5417  161.9577 C.ar    1  UNL1       -0.0029
@<TRIPOS>BOND
     1    26    27    3
     2    27    17    1
     3    17    18    2
     4    18    19    1
     5    19    20    2
     6    20    21    1
     7    21    22    2
     8    22    23    1
     9    23    16    1
    10    16    15    1
    11    15    14    1
    12    14    13    1
    13    13     7    1
    14     7     8    1
    15     8     9    1
    16     9    10    1
    17    10     1    1
    18     1     2   ar
    19     2     3   ar
    20     3     4   ar
    21     4    28    1
    22    28    29    2
    23    28    30    1
    24    30    31    1
    25    31    32    1
    26    32    33    1
    27    33    34    1
    28    34    35    1
    29    35    38    1
    30    38    39    1
    31    39    40   ar
    32    40    41   ar
    33    41    42   ar
    34    42    43   ar
    35    43    44   ar
    36    35    36    1
    37    36    37    1
    38     4     5   ar
    39     5     6   ar
    40    10    11    1
    41    11    12    1
    42    23    24    2
    43    24    25    1
    44    25    17    1
    45    24    20    1
    46    12     7    1
    47     6     1   ar
    48    37    32    1
    49    44    39   ar
@<TRIPOS>MOLECULE
*****
 44 49 0 0 0
SMALL
GASTEIGER

@<TRIPOS>ATOM
      1 C         142.2511  143.5685  164.1094 C.ar    1  UNL1        0.0479
      2 C         141.1052  143.2635  165.0281 C.ar    1  UNL1        0.0146
      3 C         141.3703  142.7629  166.4170 C.ar    1  UNL1        0.0041
      4 C         142.7811  142.5674  166.8873 C.ar    1  UNL1        0.0348
      5 C         143.9270  142.8724  165.9686 C.ar    1  UNL1        0.0041
      6 C         143.6620  143.3730  164.5797 C.ar    1  UNL1        0.0146
      7 N         141.4562  145.0702  159.9425 N.3     1  UNL1       -0.2698
      8 C         142.5852  144.1148  160.1927 C.3     1  UNL1        0.0938
      9 C         142.8501  143.6143  161.5818 C.3     1  UNL1        0.1081
     10 N         141.9861  144.0691  162.7205 N.pl3   1  UNL1       -0.3046
     11 C         140.8571  145.0245  162.4701 C.3     1  UNL1        0.1081
     12 C         140.5922  145.5251  161.0812 C.3     1  UNL1        0.0938
     13 C         141.1913  145.5708  158.5535 C.3     1  UNL1        0.0722
     14 C         139.9571  145.1338  157.8216 C.3     1  UNL1        0.0177
     15 C         139.9892  143.9026  156.9655 C.3     1  UNL1        0.0061
     16 C         140.7638  142.6983  157.4124 C.3     1  UNL1        0.0277
     17 C         138.1757  142.0100  161.4799 C.2     1  UNL1        0.0507
     18 C         137.6192  140.6212  161.5878 C.2     1  UNL1        0.0078
     19 C         137.8871  139.6196  160.5038 C.2     1  UNL1        0.0191
     20 C         138.7114  140.0067  159.3120 C.2     1  UNL1        0.0774
     21 N         139.1392  139.2401  158.0957 N.2     1  UNL1       -0.2445
     22 C         139.9601  140.1551  157.2360 C.2     1  UNL1        0.0943
     23 C         140.0397  141.4871  157.9210 C.2     1  UNL1       -0.0052
     24 C         139.2679  141.3954  159.2041 C.2     1  UNL1       -0.0019
     25 C         139.0001  142.3970  160.2880 C.3     1  UNL1        0.0643
     26 N         137.6400  144.0133  163.6478 N.1     1  UNL1       -0.1911
     27 C         137.9079  143.0116  162.5638 C.1     1  UNL1        0.0964
     28 C         143.0461  142.0668  168.2762 C.2     1  UNL1        0.1730
     29 O         143.9949  142.8067  169.1718 O.2     1  UNL1       -0.2913
     30 C         142.3623  140.8262  168.7696 C.3     1  UNL1        0.0692
     31 C         142.6679  139.5000  168.1390 C.3     1  UNL1        0.0082
     32 C         142.1778  139.1975  166.7539 C.3     1  UNL1        0.0032
     33 C         143.1266  138.6626  165.7227 C.3     1  UNL1        0.0174
     34 C         142.6365  138.3601  164.3377 C.3     1  UNL1        0.0724
     35 N         141.1974  138.5925  163.9839 N.3     1  UNL1       -0.2690
     36 C         140.2485  139.1274  165.0152 C.3     1  UNL1        0.0724
     37 C         140.7387  139.4299  166.4002 C.3     1  UNL1        0.0174
     38 C         140.7072  138.2900  162.5989 C.3     1  UNL1        0.0991
     39 C         141.5109  138.7211  161.4080 C.ar    1  UNL1       -0.0061
     40 C         141.7958  137.7474  160.3032 C.ar    1  UNL1       -0.0029
     41 C         142.5996  138.1784  159.1123 C.ar    1  UNL1       -0.0003
     42 C         143.1184  139.5832  159.0263 C.ar    1  UNL1       -0.0000
     43 C         142.8335  140.5569  160.1311 C.ar    1  UNL1       -0.0003
     44 C         142.0298  140.1259  161.3220 C.ar    1  UNL1       -0.0029
@<TRIPOS>BOND
     1    26    27    3
     2    27    17    1
     3    17    18    2
     4    18    19    1
     5    19    20    2
     6    20    21    1
     7    21    22    2
     8    22    23    1
     9    23    16    1
    10    16    15    1
    11    15    14    1
    12    14    13    1
    13    13     7    1
    14     7     8    1
    15     8     9    1
    16     9    10    1
    17    10     1    1
    18     1     2   ar
    19     2     3   ar
    20     3     4   ar
    21     4    28    1
    22    28    29    2
    23    28    30    1
    24    30    31    1
    25    31    32    1
    26    32    33    1
    27    33    34    1
    28    34    35    1
    29    35    38    1
    30    38    39    1
    31    39    40   ar
    32    40    41   ar
    33    41    42   ar
    34    42    43   ar
    35    43    44   ar
    36    35    36    1
    37    36    37    1
    38     4     5   ar
    39     5     6   ar
    40    10    11    1
    41    11    12    1
    42    23    24    2
    43    24    25    1
    44    25    17    1
    45    24    20    1
    46    12     7    1
    47     6     1   ar
    48    37    32    1
    49    44    39   ar
@<TRIPOS>MOLECULE
*****
 44 49 0 0 0
SMALL
GASTEIGER

@<TRIPOS>ATOM
      1 C         138.6875  139.5227  161.3277 C.ar    1  UNL1        0.0479
      2 C         139.4116  138.4571  160.5593 C.ar    1  UNL1        0.0146
      3 C         139.5129  138.5475  159.0655 C.ar    1  UNL1        0.0041
      4 C         138.8903  139.7034  158.3401 C.ar    1  UNL1        0.0348
      5 C         138.1663  140.7689  159.1084 C.ar    1  UNL1        0.0041
      6 C         138.0649  140.6785  160.6022 C.ar    1  UNL1        0.0146
      7 N         138.3833  139.2516  165.8093 N.3     1  UNL1       -0.2698
      8 C         139.0489  138.1528  165.0349 C.3     1  UNL1        0.0938
      9 C         139.1503  138.2433  163.5410 C.3     1  UNL1        0.1081
     10 N         138.5861  139.4324  162.8215 N.pl3   1  UNL1       -0.3046
     11 C         137.9205  140.5311  163.5960 C.3     1  UNL1        0.1081
     12 C         137.8191  140.4407  165.0898 C.3     1  UNL1        0.0938
     13 C         138.2819  139.1613  167.3031 C.3     1  UNL1        0.0722
     14 C         139.4070  139.6568  168.1625 C.3     1  UNL1        0.0177
     15 C         139.8739  141.0771  168.0415 C.3     1  UNL1        0.0061
     16 C         141.0120  141.4170  167.1255 C.3     1  UNL1        0.0277
     17 C         142.1260  140.2717  162.5251 C.2     1  UNL1        0.0507
     18 C         141.6657  141.3051  161.5401 C.2     1  UNL1        0.0078
     19 C         140.9453  142.5302  162.0199 C.2     1  UNL1        0.0191
     20 C         140.6851  142.7219  163.4846 C.2     1  UNL1        0.0774
     21 N         140.0045  143.8191  164.2480 N.2     1  UNL1       -0.2445
     22 C         140.0441  143.4639  165.7048 C.2     1  UNL1        0.0943
     23 C         140.7492  142.1471  165.8418 C.2     1  UNL1       -0.0052
     24 C         141.1454  141.6885  164.4696 C.2     1  UNL1       -0.0019
     25 C         141.8658  140.4634  163.9898 C.3     1  UNL1        0.0643
     26 N         143.5668  137.8216  161.5656 N.1     1  UNL1       -0.1911
     27 C         142.8464  139.0466  162.0453 C.1     1  UNL1        0.0964
     28 C         138.9917  139.7937  156.8462 C.2     1  UNL1        0.1730
     29 O         137.8432  139.3520  155.9885 O.2     1  UNL1       -0.2913
     30 C         140.2417  140.3256  156.2101 C.3     1  UNL1        0.0692
     31 C         141.5798  139.7850  156.6188 C.3     1  UNL1        0.0082
     32 C         142.4654  140.5841  157.5284 C.3     1  UNL1        0.0032
     33 C         143.5462  139.9011  158.3129 C.3     1  UNL1        0.0174
     34 C         144.4318  140.7001  159.2225 C.3     1  UNL1        0.0724
     35 N         144.2366  142.1822  159.3475 N.3     1  UNL1       -0.2690
     36 C         143.1559  142.8652  158.5629 C.3     1  UNL1        0.0724
     37 C         142.2703  142.0660  157.6533 C.3     1  UNL1        0.0174
     38 C         145.1222  142.9812  160.2570 C.3     1  UNL1        0.0991
     39 C         144.9166  142.9269  161.7418 C.ar    1  UNL1       -0.0061
     40 C         145.4486  141.7673  162.5307 C.ar    1  UNL1       -0.0029
     41 C         145.2429  141.7130  164.0155 C.ar    1  UNL1       -0.0003
     42 C         144.5053  142.8183  164.7115 C.ar    1  UNL1       -0.0000
     43 C         143.9734  143.9779  163.9226 C.ar    1  UNL1       -0.0003
     44 C         144.1790  144.0322  162.4378 C.ar    1  UNL1       -0.0029
@<TRIPOS>BOND
     1    26    27    3
     2    27    17    1
     3    17    18    2
     4    18    19    1
     5    19    20    2
     6    20    21    1
     7    21    22    2
     8    22    23    1
     9    23    16    1
    10    16    15    1
    11    15    14    1
    12    14    13    1
    13    13     7    1
    14     7     8    1
    15     8     9    1
    16     9    10    1
    17    10     1    1
    18     1     2   ar
    19     2     3   ar
    20     3     4   ar
    21     4    28    1
    22    28    29    2
    23    28    30    1
    24    30    31    1
    25    31    32    1
    26    32    33    1
    27    33    34    1
    28    34    35    1
    29    35    38    1
    30    38    39    1
    31    39    40   ar
    32    40    41   ar
    33    41    42   ar
    34    42    43   ar
    35    43    44   ar
    36    35    36    1
    37    36    37    1
    38     4     5   ar
    39     5     6   ar
    40    10    11    1
    41    11    12    1
    42    23    24    2
    43    24    25    1
    44    25    17    1
    45    24    20    1
    46    12     7    1
    47     6     1   ar
    48    37    32    1
    49    44    39   ar
@<TRIPOS>MOLECULE
*****
 44 49 0 0 0
SMALL
GASTEIGER

@<TRIPOS>ATOM
      1 C         139.1626  140.8259  158.7837 C.ar    1  UNL1        0.0479
      2 C         138.2814  142.0344  158.6697 C.ar    1  UNL1        0.0146
      3 C         138.3053  142.8649  157.4208 C.ar    1  UNL1        0.0041
      4 C         139.2103  142.4868  156.2860 C.ar    1  UNL1        0.0348
      5 C         140.0915  141.2783  156.3999 C.ar    1  UNL1        0.0041
      6 C         140.0676  140.4479  157.6488 C.ar    1  UNL1        0.0146
      7 N         139.0912  138.3343  162.5303 N.3     1  UNL1       -0.2698
      8 C         140.3294  138.3822  161.6850 C.3     1  UNL1        0.0938
      9 C         140.3531  139.2128  160.4361 C.3     1  UNL1        0.1081
     10 N         139.1387  139.9954  160.0325 N.pl3   1  UNL1       -0.3046
     11 C         137.9005  139.9474  160.8779 C.3     1  UNL1        0.1081
     12 C         137.8768  139.1168  162.1267 C.3     1  UNL1        0.0938
     13 C         139.0673  137.5038  163.7791 C.3     1  UNL1        0.0722
     14 C         138.9080  138.1645  165.1163 C.3     1  UNL1        0.0177
     15 C         139.6177  139.4541  165.4050 C.3     1  UNL1        0.0061
     16 C         140.7482  139.4838  166.3904 C.3     1  UNL1        0.0277
     17 C         143.9172  140.3197  162.7884 C.2     1  UNL1        0.0507
     18 C         144.8396  141.4663  163.0788 C.2     1  UNL1        0.0078
     19 C         144.7199  142.2159  164.3726 C.2     1  UNL1        0.0191
     20 C         143.6780  141.8189  165.3758 C.2     1  UNL1        0.0774
     21 N         143.3251  142.3668  166.7269 N.2     1  UNL1       -0.2445
     22 C         142.1847  141.5587  167.2714 C.2     1  UNL1        0.0943
     23 C         141.8326  140.5114  166.2569 C.2     1  UNL1       -0.0052
     24 C         142.7556  140.6722  165.0854 C.2     1  UNL1       -0.0019
     25 C         142.8752  139.9226  163.7916 C.3     1  UNL1        0.0643
     26 N         144.1564  138.8205  160.2009 N.1     1  UNL1       -0.1911
     27 C         144.0368  139.5701  161.4946 C.1     1  UNL1        0.0964
     28 C         139.2342  143.3174  155.0371 C.2     1  UNL1        0.1730
     29 O         138.0730  143.2785  154.0883 O.2     1  UNL1       -0.2913
     30 C         140.4192  144.1868  154.7369 C.3     1  UNL1        0.0692
     31 C         140.8091  145.2781  155.6893 C.3     1  UNL1        0.0082
     32 C         141.3047  144.9334  157.0624 C.3     1  UNL1        0.0032
     33 C         140.6537  145.5415  158.2693 C.3     1  UNL1        0.0174
     34 C         141.1494  145.1969  159.6424 C.3     1  UNL1        0.0724
     35 N         142.2960  144.2441  159.8088 N.3     1  UNL1       -0.2690
     36 C         142.9470  143.6361  158.6019 C.3     1  UNL1        0.0724
     37 C         142.4513  143.9808  157.2288 C.3     1  UNL1        0.0174
     38 C         142.7917  143.8995  161.1820 C.3     1  UNL1        0.0991
     39 C         141.8135  143.6040  162.2801 C.ar    1  UNL1       -0.0061
     40 C         141.8297  144.4201  163.5385 C.ar    1  UNL1       -0.0029
     41 C         140.8516  144.1246  164.6367 C.ar    1  UNL1       -0.0003
     42 C         139.8573  143.0129  164.4764 C.ar    1  UNL1       -0.0000
     43 C         139.8412  142.1968  163.2180 C.ar    1  UNL1       -0.0003
     44 C         140.8193  142.4924  162.1198 C.ar    1  UNL1       -0.0029
@<TRIPOS>BOND
     1    26    27    3
     2    27    17    1
     3    17    18    2
     4    18    19    1
     5    19    20    2
     6    20    21    1
     7    21    22    2
     8    22    23    1
     9    23    16    1
    10    16    15    1
    11    15    14    1
    12    14    13    1
    13    13     7    1
    14     7     8    1
    15     8     9    1
    16     9    10    1
    17    10     1    1
    18     1     2   ar
    19     2     3   ar
    20     3     4   ar
    21     4    28    1
    22    28    29    2
    23    28    30    1
    24    30    31    1
    25    31    32    1
    26    32    33    1
    27    33    34    1
    28    34    35    1
    29    35    38    1
    30    38    39    1
    31    39    40   ar
    32    40    41   ar
    33    41    42   ar
    34    42    43   ar
    35    43    44   ar
    36    35    36    1
    37    36    37    1
    38     4     5   ar
    39     5     6   ar
    40    10    11    1
    41    11    12    1
    42    23    24    2
    43    24    25    1
    44    25    17    1
    45    24    20    1
    46    12     7    1
    47     6     1   ar
    48    37    32    1
    49    44    39   ar
@<TRIPOS>MOLECULE
*****
 44 49 0 0 0
SMALL
GASTEIGER

@<TRIPOS>ATOM
      1 C         140.5236  138.6620  159.3521 C.ar    1  UNL1        0.0479
      2 C         139.5033  139.1529  158.3682 C.ar    1  UNL1        0.0146
      3 C         139.9075  139.4521  156.9551 C.ar    1  UNL1        0.0041
      4 C         141.3319  139.2606  156.5258 C.ar    1  UNL1        0.0348
      5 C         142.3523  138.7698  157.5097 C.ar    1  UNL1        0.0041
      6 C         141.9481  138.4705  158.9228 C.ar    1  UNL1        0.0146
      7 N         139.3112  137.7641  163.5917 N.3     1  UNL1       -0.2698
      8 C         138.3202  138.3654  162.6396 C.3     1  UNL1        0.0938
      9 C         138.7245  138.6646  161.2264 C.3     1  UNL1        0.1081
     10 N         140.1195  138.3627  160.7653 N.pl3   1  UNL1       -0.3046
     11 C         141.1105  137.7614  161.7175 C.3     1  UNL1        0.1081
     12 C         140.7063  137.4621  163.1306 C.3     1  UNL1        0.0938
     13 C         138.9071  137.4648  165.0049 C.3     1  UNL1        0.0722
     14 C         138.4653  138.5763  165.9100 C.3     1  UNL1        0.0177
     15 C         139.4221  139.6727  166.2736 C.3     1  UNL1        0.0061
     16 C         139.7288  140.7588  165.2856 C.3     1  UNL1        0.0277
     17 C         141.0715  144.9596  163.2198 C.2     1  UNL1        0.0507
     18 C         142.4425  145.4019  163.6379 C.2     1  UNL1        0.0078
     19 C         143.2394  144.5685  164.5973 C.2     1  UNL1        0.0191
     20 C         142.6653  143.2928  165.1386 C.2     1  UNL1        0.0774
     21 N         143.2113  142.2714  166.0918 N.2     1  UNL1       -0.2445
     22 C         142.1777  141.1978  166.2629 C.2     1  UNL1        0.0943
     23 C         140.9930  141.5557  165.4154 C.2     1  UNL1       -0.0052
     24 C         141.2944  142.8505  164.7206 C.2     1  UNL1       -0.0019
     25 C         140.4975  143.6839  163.7612 C.3     1  UNL1        0.0643
     26 N         139.4778  146.6263  161.3010 N.1     1  UNL1       -0.1911
     27 C         140.2746  145.7930  162.2604 C.1     1  UNL1        0.0964
     28 C         141.7360  139.5599  155.1126 C.2     1  UNL1        0.1730
     29 O         141.9992  138.4367  154.1539 O.2     1  UNL1       -0.2913
     30 C         141.8771  140.9825  154.6581 C.3     1  UNL1        0.0692
     31 C         143.0313  141.8120  155.1371 C.3     1  UNL1        0.0082
     32 C         143.1546  142.1564  156.5918 C.3     1  UNL1        0.0032
     33 C         141.9915  142.7617  157.3204 C.3     1  UNL1        0.0174
     34 C         142.1147  143.1061  158.7751 C.3     1  UNL1        0.0724
     35 N         143.4012  142.8453  159.5013 N.3     1  UNL1       -0.2690
     36 C         144.5643  142.2401  158.7727 C.3     1  UNL1        0.0724
     37 C         144.4409  141.8957  157.3179 C.3     1  UNL1        0.0174
     38 C         143.5244  143.1898  160.9560 C.3     1  UNL1        0.0991
     39 C         143.9959  142.1552  161.9344 C.ar    1  UNL1       -0.0061
     40 C         143.1971  140.9032  162.1453 C.ar    1  UNL1       -0.0029
     41 C         143.6686  139.8686  163.1237 C.ar    1  UNL1       -0.0003
     42 C         144.9390  140.0860  163.8912 C.ar    1  UNL1       -0.0000
     43 C         145.7378  141.3379  163.6803 C.ar    1  UNL1       -0.0003
     44 C         145.2663  142.3725  162.7019 C.ar    1  UNL1       -0.0029
@<TRIPOS>BOND
     1    26    27    3
     2    27    17    1
     3    17    18    2
     4    18    19    1
     5    19    20    2
     6    20    21    1
     7    21    22    2
     8    22    23    1
     9    23    16    1
    10    16    15    1
    11    15    14    1
    12    14    13    1
    13    13     7    1
    14     7     8    1
    15     8     9    1
    16     9    10    1
    17    10     1    1
    18     1     2   ar
    19     2     3   ar
    20     3     4   ar
    21     4    28    1
    22    28    29    2
    23    28    30    1
    24    30    31    1
    25    31    32    1
    26    32    33    1
    27    33    34    1
    28    34    35    1
    29    35    38    1
    30    38    39    1
    31    39    40   ar
    32    40    41   ar
    33    41    42   ar
    34    42    43   ar
    35    43    44   ar
    36    35    36    1
    37    36    37    1
    38     4     5   ar
    39     5     6   ar
    40    10    11    1
    41    11    12    1
    42    23    24    2
    43    24    25    1
    44    25    17    1
    45    24    20    1
    46    12     7    1
    47     6     1   ar
    48    37    32    1
    49    44    39   ar
@<TRIPOS>MOLECULE
*****
 44 49 0 0 0
SMALL
GASTEIGER

@<TRIPOS>ATOM
      1 C         139.6614  138.5127  162.7800 C.ar    1  UNL1        0.0479
      2 C         138.7589  139.6373  163.1931 C.ar    1  UNL1        0.0146
      3 C         138.2051  139.6814  164.5864 C.ar    1  UNL1        0.0041
      4 C         138.5539  138.6010  165.5667 C.ar    1  UNL1        0.0348
      5 C         139.4565  137.4763  165.1536 C.ar    1  UNL1        0.0041
      6 C         140.0102  137.4323  163.7603 C.ar    1  UNL1        0.0146
      7 N         141.3227  138.3802  158.6000 N.3     1  UNL1       -0.2698
      8 C         139.9127  138.8360  158.8325 C.3     1  UNL1        0.0938
      9 C         139.3590  138.8801  160.2260 C.3     1  UNL1        0.1081
     10 N         140.2152  138.4685  161.3867 N.pl3   1  UNL1       -0.3046
     11 C         141.6253  138.0127  161.1541 C.3     1  UNL1        0.1081
     12 C         142.1790  137.9686  159.7608 C.3     1  UNL1        0.0938
     13 C         141.8765  138.3360  157.2067 C.3     1  UNL1        0.0722
     14 C         141.1275  138.9855  156.0810 C.3     1  UNL1        0.0177
     15 C         141.3046  140.4499  155.8086 C.3     1  UNL1        0.0061
     16 C         140.4587  141.4551  156.5324 C.3     1  UNL1        0.0277
     17 C         139.4540  143.4774  160.8472 C.2     1  UNL1        0.0507
     18 C         140.3693  144.6173  161.1831 C.2     1  UNL1        0.0078
     19 C         141.4515  145.0177  160.2248 C.2     1  UNL1        0.0191
     20 C         141.6185  144.2782  158.9305 C.2     1  UNL1        0.0774
     21 N         142.5873  144.4441  157.7974 N.2     1  UNL1       -0.2445
     22 C         142.2708  143.4068  156.7612 C.2     1  UNL1        0.0943
     23 C         141.1064  142.5997  157.2538 C.2     1  UNL1       -0.0052
     24 C         140.7032  143.1383  158.5946 C.2     1  UNL1       -0.0019
     25 C         139.6210  142.7379  159.5529 C.3     1  UNL1        0.0643
     26 N         137.2894  142.6767  162.7638 N.1     1  UNL1       -0.1911
     27 C         138.3717  143.0771  161.8055 C.1     1  UNL1        0.0964
     28 C         138.0001  138.6451  166.9600 C.2     1  UNL1        0.1730
     29 O         136.9189  137.6888  167.3680 O.2     1  UNL1       -0.2913
     30 C         138.5275  139.6456  167.9454 C.3     1  UNL1        0.0692
     31 C         140.0072  139.8170  168.1211 C.3     1  UNL1        0.0082
     32 C         140.7824  140.6707  167.1618 C.3     1  UNL1        0.0032
     33 C         140.1809  141.9381  166.6308 C.3     1  UNL1        0.0174
     34 C         140.9561  142.7918  165.6715 C.3     1  UNL1        0.0724
     35 N         142.3329  142.3780  165.2431 N.3     1  UNL1       -0.2690
     36 C         142.9344  141.1107  165.7741 C.3     1  UNL1        0.0724
     37 C         142.1591  140.2570  166.7334 C.3     1  UNL1        0.0174
     38 C         143.1081  143.2317  164.2837 C.3     1  UNL1        0.0991
     39 C         143.3635  142.7480  162.8870 C.ar    1  UNL1       -0.0061
     40 C         142.4352  141.7526  162.2566 C.ar    1  UNL1       -0.0029
     41 C         142.6907  141.2690  160.8598 C.ar    1  UNL1       -0.0003
     42 C         143.8743  141.7807  160.0936 C.ar    1  UNL1       -0.0000
     43 C         144.8026  142.7761  160.7241 C.ar    1  UNL1       -0.0003
     44 C         144.5472  143.2597  162.1208 C.ar    1  UNL1       -0.0029
@<TRIPOS>BOND
     1    26    27    3
     2    27    17    1
     3    17    18    2
     4    18    19    1
     5    19    20    2
     6    20    21    1
     7    21    22    2
     8    22    23    1
     9    23    16    1
    10    16    15    1
    11    15    14    1
    12    14    13    1
    13    13     7    1
    14     7     8    1
    15     8     9    1
    16     9    10    1
    17    10     1    1
    18     1     2   ar
    19     2     3   ar
    20     3     4   ar
    21     4    28    1
    22    28    29    2
    23    28    30    1
    24    30    31    1
    25    31    32    1
    26    32    33    1
    27    33    34    1
    28    34    35    1
    29    35    38    1
    30    38    39    1
    31    39    40   ar
    32    40    41   ar
    33    41    42   ar
    34    42    43   ar
    35    43    44   ar
    36    35    36    1
    37    36    37    1
    38     4     5   ar
    39     5     6   ar
    40    10    11    1
    41    11    12    1
    42    23    24    2
    43    24    25    1
    44    25    17    1
    45    24    20    1
    46    12     7    1
    47     6     1   ar
    48    37    32    1
    49    44    39   ar
