@<TRIPOS>MOLECULE
*****
 38 42 0 0 0
SMALL
GASTEIGER

@<TRIPOS>ATOM
      1 C         138.7652  139.7457  159.4357 C.3     1  UNL1        0.0758
      2 C         138.1739  139.1169  160.6624 C.3     1  UNL1        0.0370
      3 C         137.6905  139.9809  161.7893 C.3     1  UNL1        0.0741
      4 N         137.7983  141.4736  161.6894 N.3     1  UNL1       -0.2688
      5 C         138.3897  142.1025  160.4627 C.3     1  UNL1        0.0741
      6 C         138.8731  141.2386  159.3358 C.3     1  UNL1        0.0370
      7 O         141.5738  138.6914  159.4522 O.2     1  UNL1       -0.2528
      8 C         140.6530  138.3546  158.3171 C.2     1  UNL1        0.3011
      9 N         141.1365  137.4907  157.1902 N.am    1  UNL1       -0.2782
     10 N         139.2487  138.8818  158.3088 N.am    1  UNL1       -0.2905
     11 H         140.5321  137.2697  156.4452 H       1  UNL1        0.1515
     12 H         138.6443  138.6608  157.5637 H       1  UNL1        0.1509
     13 C         142.5407  136.9635  157.1985 C.3     1  UNL1        0.2162
     14 C         142.8428  135.6245  156.5937 C.2     1  UNL1        0.3713
     15 N         143.7566  134.5832  157.1687 N.2     1  UNL1       -0.0334
     16 C         143.7626  133.4068  156.2381 C.2     1  UNL1        0.2318
     17 C         144.4793  132.0901  156.2895 C.2     1  UNL1        0.0498
     18 C         144.2857  131.0876  155.1907 C.2     1  UNL1       -0.0002
     19 C         143.3755  131.4017  154.0405 C.2     1  UNL1       -0.0172
     20 C         142.6589  132.7184  153.9892 C.3     1  UNL1        0.1037
     21 C         142.8524  133.7210  155.0880 C.2     1  UNL1        0.2175
     22 N         142.2839  135.0916  155.3078 N.2     1  UNL1       -0.0372
     23 C         137.3149  142.3376  162.8163 C.3     1  UNL1        0.1007
     24 C         138.2209  142.6373  163.9736 C.ar    1  UNL1        0.0129
     25 C         138.6341  144.0019  164.4395 C.ar    1  UNL1        0.0176
     26 C         139.5414  143.8330  165.6220 C.ar    1  UNL1        0.0799
     27 N         139.6889  142.3639  165.8869 N.ar    1  UNL1       -0.3038
     28 C         138.8728  141.6250  164.8681 C.ar    1  UNL1        0.0772
     29 C         140.5087  141.7429  166.9788 C.ar    1  UNL1        0.0640
     30 C         141.9255  142.1846  167.1967 C.ar    1  UNL1        0.0175
     31 C         142.7452  141.5635  168.2887 C.ar    1  UNL1        0.0053
     32 C         142.1481  140.5008  169.1628 C.ar    1  UNL1        0.0715
     33 C         140.7313  140.0590  168.9449 C.ar    1  UNL1        0.0053
     34 C         139.9116  140.6801  167.8529 C.ar    1  UNL1        0.0175
     35 C         142.9679  139.8797  170.2547 C.3     1  UNL1        0.4186
     36 F         143.7876  139.2587  171.3466 F       1  UNL1       -0.1659
     37 F         143.8210  141.1119  170.3151 F       1  UNL1       -0.1659
     38 F         142.1147  138.6474  170.1944 F       1  UNL1       -0.1659
@<TRIPOS>BOND
     1     7     8    2
     2     8     9   am
     3     9    13    1
     4    13    14    1
     5    14    15    2
     6    15    16    1
     7    16    17    2
     8    17    18    1
     9    18    19    2
    10    19    20    1
    11    20    21    1
    12    21    22    2
    13     8    10   am
    14    10     1    1
    15     1     2    1
    16     2     3    1
    17     3     4    1
    18     4    23    1
    19    23    24    1
    20    24    25   ar
    21    25    26   ar
    22    26    27   ar
    23    27    29    1
    24    29    30   ar
    25    30    31   ar
    26    31    32   ar
    27    32    35    1
    28    35    36    1
    29    35    37    1
    30    35    38    1
    31    32    33   ar
    32    33    34   ar
    33    27    28   ar
    34     4     5    1
    35     5     6    1
    36    22    14    1
    37     6     1    1
    38    21    16    1
    39    28    24   ar
    40    34    29   ar
    41     9    11    1
    42    10    12    1
@<TRIPOS>MOLECULE
*****
 38 42 0 0 0
SMALL
GASTEIGER

@<TRIPOS>ATOM
      1 C         139.3542  141.3139  158.7544 C.3     1  UNL1        0.0758
      2 C         140.7350  141.0923  158.2121 C.3     1  UNL1        0.0370
      3 C         141.7240  140.2752  158.9894 C.3     1  UNL1        0.0741
      4 N         141.3321  139.6795  160.3091 N.3     1  UNL1       -0.2688
      5 C         139.9512  139.9011  160.8515 C.3     1  UNL1        0.0741
      6 C         138.9622  140.7182  160.0741 C.3     1  UNL1        0.0370
      7 O         137.4418  139.9664  156.8764 O.2     1  UNL1       -0.2528
      8 C         137.4090  141.4573  157.0380 C.2     1  UNL1        0.3011
      9 N         136.4201  142.2744  156.2607 N.am    1  UNL1       -0.2782
     10 N         138.3653  142.1310  157.9770 N.am    1  UNL1       -0.2905
     11 H         136.3987  143.2529  156.3668 H       1  UNL1        0.1515
     12 H         138.3438  143.1096  158.0831 H       1  UNL1        0.1509
     13 C         135.4639  141.6007  155.3217 C.3     1  UNL1        0.2162
     14 C         134.2037  140.9824  155.8505 C.2     1  UNL1        0.3713
     15 N         132.8050  141.3724  155.4743 N.2     1  UNL1       -0.0334
     16 C         131.8578  140.4966  156.2396 C.2     1  UNL1        0.2318
     17 C         130.3598  140.4268  156.2730 C.2     1  UNL1        0.0498
     18 C         129.6752  139.4257  157.1555 C.2     1  UNL1       -0.0002
     19 C         130.4885  138.4944  158.0047 C.2     1  UNL1       -0.0172
     20 C         131.9864  138.5642  157.9714 C.3     1  UNL1        0.1037
     21 C         132.6711  139.5653  157.0889 C.2     1  UNL1        0.2175
     22 N         134.1209  139.8655  156.8483 N.2     1  UNL1       -0.0372
     23 C         142.3210  138.8624  161.0864 C.3     1  UNL1        0.1007
     24 C         142.2535  138.8291  162.5845 C.ar    1  UNL1        0.0129
     25 C         141.8475  137.6535  163.4230 C.ar    1  UNL1        0.0176
     26 C         141.9233  138.0634  164.8638 C.ar    1  UNL1        0.0799
     27 N         142.3763  139.4925  164.9159 N.ar    1  UNL1       -0.3038
     28 C         142.5804  139.9657  163.5072 C.ar    1  UNL1        0.0772
     29 C         142.5879  140.3056  166.1585 C.ar    1  UNL1        0.0640
     30 C         143.0960  141.7132  166.0563 C.ar    1  UNL1        0.0175
     31 C         143.3077  142.5263  167.2989 C.ar    1  UNL1        0.0053
     32 C         143.0113  141.9318  168.6438 C.ar    1  UNL1        0.0715
     33 C         142.5033  140.5241  168.7461 C.ar    1  UNL1        0.0053
     34 C         142.2916  139.7111  167.5034 C.ar    1  UNL1        0.0175
     35 C         143.2230  142.7449  169.8864 C.3     1  UNL1        0.4186
     36 F         143.4347  143.5579  171.1289 F       1  UNL1       -0.1659
     37 F         141.7388  142.8998  170.0379 F       1  UNL1       -0.1659
     38 F         144.7073  142.5900  169.7349 F       1  UNL1       -0.1659
@<TRIPOS>BOND
     1     7     8    2
     2     8     9   am
     3     9    13    1
     4    13    14    1
     5    14    15    2
     6    15    16    1
     7    16    17    2
     8    17    18    1
     9    18    19    2
    10    19    20    1
    11    20    21    1
    12    21    22    2
    13     8    10   am
    14    10     1    1
    15     1     2    1
    16     2     3    1
    17     3     4    1
    18     4    23    1
    19    23    24    1
    20    24    25   ar
    21    25    26   ar
    22    26    27   ar
    23    27    29    1
    24    29    30   ar
    25    30    31   ar
    26    31    32   ar
    27    32    35    1
    28    35    36    1
    29    35    37    1
    30    35    38    1
    31    32    33   ar
    32    33    34   ar
    33    27    28   ar
    34     4     5    1
    35     5     6    1
    36    22    14    1
    37     6     1    1
    38    21    16    1
    39    28    24   ar
    40    34    29   ar
    41     9    11    1
    42    10    12    1
@<TRIPOS>MOLECULE
*****
 38 42 0 0 0
SMALL
GASTEIGER

@<TRIPOS>ATOM
      1 C         143.7146  140.9588  159.3142 C.3     1  UNL1        0.0758
      2 C         143.0526  142.2348  158.8859 C.3     1  UNL1        0.0370
      3 C         142.7763  143.3112  159.8933 C.3     1  UNL1        0.0741
      4 N         143.1621  143.1117  161.3290 N.3     1  UNL1       -0.2688
      5 C         143.8242  141.8357  161.7574 C.3     1  UNL1        0.0741
      6 C         144.1005  140.7592  160.7499 C.3     1  UNL1        0.0370
      7 O         141.7454  138.7297  158.9225 O.2     1  UNL1       -0.2528
      8 C         143.0062  138.7678  158.1109 C.2     1  UNL1        0.3011
      9 N         143.2825  137.6913  157.1035 N.am    1  UNL1       -0.2782
     10 N         143.9909  139.8824  158.3067 N.am    1  UNL1       -0.2905
     11 H         144.1101  137.7163  156.5708 H       1  UNL1        0.1515
     12 H         144.8185  139.9073  157.7740 H       1  UNL1        0.1509
     13 C         142.2979  136.5768  156.9077 C.3     1  UNL1        0.2162
     14 C         142.7764  135.2184  156.4883 C.2     1  UNL1        0.3713
     15 N         143.8035  134.3874  157.1985 N.2     1  UNL1       -0.0334
     16 C         143.9736  133.1079  156.4343 C.2     1  UNL1        0.2318
     17 C         144.8490  131.9114  156.6624 C.2     1  UNL1        0.0498
     18 C         144.8023  130.7551  155.7080 C.2     1  UNL1       -0.0002
     19 C         143.8803  130.7954  154.5255 C.2     1  UNL1       -0.0172
     20 C         143.0050  131.9920  154.2974 C.3     1  UNL1        0.1037
     21 C         143.0517  133.1482  155.2518 C.2     1  UNL1        0.2175
     22 N         142.3117  134.4526  155.2852 N.2     1  UNL1       -0.0372
     23 C         142.8858  144.1881  162.3365 C.3     1  UNL1        0.1007
     24 C         141.8692  143.9621  163.4159 C.ar    1  UNL1        0.0129
     25 C         140.5547  144.6718  163.5517 C.ar    1  UNL1        0.0176
     26 C         139.8616  144.1349  164.7688 C.ar    1  UNL1        0.0799
     27 N         140.7478  143.0934  165.3853 N.ar    1  UNL1       -0.3038
     28 C         141.9885  142.9866  164.5492 C.ar    1  UNL1        0.0772
     29 C         140.4462  142.2984  166.6210 C.ar    1  UNL1        0.0640
     30 C         140.7218  142.8827  167.9747 C.ar    1  UNL1        0.0175
     31 C         140.4201  142.0877  169.2104 C.ar    1  UNL1        0.0053
     32 C         139.8430  140.7082  169.0924 C.ar    1  UNL1        0.0715
     33 C         139.5674  140.1238  167.7386 C.ar    1  UNL1        0.0053
     34 C         139.8690  140.9189  166.5030 C.ar    1  UNL1        0.0175
     35 C         139.5413  139.9131  170.3281 C.3     1  UNL1        0.4186
     36 F         139.2397  139.1181  171.5637 F       1  UNL1       -0.1659
     37 F         140.9976  139.5836  170.4715 F       1  UNL1       -0.1659
     38 F         138.0850  140.2427  170.1846 F       1  UNL1       -0.1659
@<TRIPOS>BOND
     1     7     8    2
     2     8     9   am
     3     9    13    1
     4    13    14    1
     5    14    15    2
     6    15    16    1
     7    16    17    2
     8    17    18    1
     9    18    19    2
    10    19    20    1
    11    20    21    1
    12    21    22    2
    13     8    10   am
    14    10     1    1
    15     1     2    1
    16     2     3    1
    17     3     4    1
    18     4    23    1
    19    23    24    1
    20    24    25   ar
    21    25    26   ar
    22    26    27   ar
    23    27    29    1
    24    29    30   ar
    25    30    31   ar
    26    31    32   ar
    27    32    35    1
    28    35    36    1
    29    35    37    1
    30    35    38    1
    31    32    33   ar
    32    33    34   ar
    33    27    28   ar
    34     4     5    1
    35     5     6    1
    36    22    14    1
    37     6     1    1
    38    21    16    1
    39    28    24   ar
    40    34    29   ar
    41     9    11    1
    42    10    12    1
@<TRIPOS>MOLECULE
*****
 38 42 0 0 0
SMALL
GASTEIGER

@<TRIPOS>ATOM
      1 C         140.7617  138.5783  158.6636 C.3     1  UNL1        0.0758
      2 C         142.2316  138.7290  158.4057 C.3     1  UNL1        0.0370
      3 C         143.2020  138.6858  159.5487 C.3     1  UNL1        0.0741
      4 N         142.7024  138.4919  160.9497 N.3     1  UNL1       -0.2688
      5 C         141.2324  138.3412  161.2077 C.3     1  UNL1        0.0741
      6 C         140.2621  138.3844  160.0646 C.3     1  UNL1        0.0370
      7 O         138.9590  140.9508  158.3152 O.2     1  UNL1       -0.2528
      8 C         138.8900  139.8077  157.3463 C.2     1  UNL1        0.3011
      9 N         137.9196  139.8509  156.2033 N.am    1  UNL1       -0.2782
     10 N         139.7914  138.6214  157.5205 N.am    1  UNL1       -0.2905
     11 H         137.8744  139.1007  155.5674 H       1  UNL1        0.1515
     12 H         139.7461  137.8712  156.8847 H       1  UNL1        0.1509
     13 C         137.0183  141.0371  156.0291 C.3     1  UNL1        0.2162
     14 C         135.5303  140.8675  156.1147 C.2     1  UNL1        0.3713
     15 N         134.5106  141.6019  155.2957 N.2     1  UNL1       -0.0334
     16 C         133.1509  141.1219  155.7091 C.2     1  UNL1        0.2318
     17 C         131.7727  141.4906  155.2459 C.2     1  UNL1        0.0498
     18 C         130.5739  140.8281  155.8573 C.2     1  UNL1       -0.0002
     19 C         130.7533  139.7970  156.9319 C.2     1  UNL1       -0.0172
     20 C         132.1315  139.4284  157.3950 C.3     1  UNL1        0.1037
     21 C         133.3303  140.0908  156.7836 C.2     1  UNL1        0.2175
     22 N         134.8009  139.9336  157.0343 N.2     1  UNL1       -0.0372
     23 C         143.6728  138.4488  162.0927 C.3     1  UNL1        0.1007
     24 C         143.6517  139.5267  163.1355 C.ar    1  UNL1        0.0129
     25 C         144.6197  140.6675  163.2441 C.ar    1  UNL1        0.0176
     26 C         144.2252  141.4990  164.4286 C.ar    1  UNL1        0.0799
     27 N         143.0134  140.8721  165.0520 N.ar    1  UNL1       -0.3038
     28 C         142.6590  139.6532  164.2529 C.ar    1  UNL1        0.0772
     29 C         142.2840  141.3758  166.2622 C.ar    1  UNL1        0.0640
     30 C         140.7941  141.2292  166.3549 C.ar    1  UNL1        0.0175
     31 C         140.0647  141.7328  167.5650 C.ar    1  UNL1        0.0053
     32 C         140.8253  142.3831  168.6824 C.ar    1  UNL1        0.0715
     33 C         142.3153  142.5298  168.5897 C.ar    1  UNL1        0.0053
     34 C         143.0446  142.0261  167.3796 C.ar    1  UNL1        0.0175
     35 C         140.0960  142.8868  169.8926 C.3     1  UNL1        0.4186
     36 F         139.3667  143.3904  171.1026 F       1  UNL1       -0.1659
     37 F         139.3237  141.6028  169.9615 F       1  UNL1       -0.1659
     38 F         140.8683  144.1708  169.8236 F       1  UNL1       -0.1659
@<TRIPOS>BOND
     1     7     8    2
     2     8     9   am
     3     9    13    1
     4    13    14    1
     5    14    15    2
     6    15    16    1
     7    16    17    2
     8    17    18    1
     9    18    19    2
    10    19    20    1
    11    20    21    1
    12    21    22    2
    13     8    10   am
    14    10     1    1
    15     1     2    1
    16     2     3    1
    17     3     4    1
    18     4    23    1
    19    23    24    1
    20    24    25   ar
    21    25    26   ar
    22    26    27   ar
    23    27    29    1
    24    29    30   ar
    25    30    31   ar
    26    31    32   ar
    27    32    35    1
    28    35    36    1
    29    35    37    1
    30    35    38    1
    31    32    33   ar
    32    33    34   ar
    33    27    28   ar
    34     4     5    1
    35     5     6    1
    36    22    14    1
    37     6     1    1
    38    21    16    1
    39    28    24   ar
    40    34    29   ar
    41     9    11    1
    42    10    12    1
@<TRIPOS>MOLECULE
*****
 38 42 0 0 0
SMALL
GASTEIGER

@<TRIPOS>ATOM
      1 C         142.5439  138.7519  158.6479 C.3     1  UNL1        0.0758
      2 C         141.1319  138.9911  158.2018 C.3     1  UNL1        0.0370
      3 C         139.9949  138.7516  159.1505 C.3     1  UNL1        0.0741
      4 N         140.2699  138.2729  160.5452 N.3     1  UNL1       -0.2688
      5 C         141.6820  138.0337  160.9913 C.3     1  UNL1        0.0741
      6 C         142.8190  138.2732  160.0427 C.3     1  UNL1        0.0370
      7 O         143.8977  141.4281  158.5743 O.2     1  UNL1       -0.2528
      8 C         144.3578  140.3296  157.6625 C.2     1  UNL1        0.3011
      9 N         145.4948  140.5691  156.7139 N.am    1  UNL1       -0.2782
     10 N         143.6809  138.9914  157.6993 N.am    1  UNL1       -0.2905
     11 H         145.7968  139.8480  156.1155 H       1  UNL1        0.1515
     12 H         143.9829  138.2704  157.1009 H       1  UNL1        0.1509
     13 C         146.1717  141.9071  156.6771 C.3     1  UNL1        0.2162
     14 C         147.3401  142.1317  155.7636 C.2     1  UNL1        0.3713
     15 N         147.2958  142.8078  154.4254 N.2     1  UNL1       -0.0334
     16 C         148.6863  142.8136  153.8627 C.2     1  UNL1        0.2318
     17 C         149.2463  143.3443  152.5764 C.2     1  UNL1        0.0498
     18 C         150.7100  143.2025  152.2806 C.2     1  UNL1       -0.0002
     19 C         151.6136  142.5300  153.2711 C.2     1  UNL1       -0.0172
     20 C         151.0536  141.9993  154.5574 C.3     1  UNL1        0.1037
     21 C         149.5899  142.1411  154.8532 C.2     1  UNL1        0.2175
     22 N         148.7579  141.7197  156.0281 N.2     1  UNL1       -0.0372
     23 C         139.1329  138.0334  161.4938 C.3     1  UNL1        0.1007
     24 C         138.8602  139.0098  162.5993 C.ar    1  UNL1        0.0129
     25 C         137.8440  140.1128  162.5707 C.ar    1  UNL1        0.0176
     26 C         137.9115  140.8393  163.8813 C.ar    1  UNL1        0.0799
     27 N         138.9694  140.1853  164.7199 N.ar    1  UNL1       -0.3038
     28 C         139.5557  139.0546  163.9275 C.ar    1  UNL1        0.0772
     29 C         139.3705  140.5908  166.1072 C.ar    1  UNL1        0.0640
     30 C         139.0894  139.6802  167.2655 C.ar    1  UNL1        0.0175
     31 C         139.4906  140.0857  168.6529 C.ar    1  UNL1        0.0053
     32 C         140.1728  141.4018  168.8819 C.ar    1  UNL1        0.0715
     33 C         140.4539  142.3125  167.7235 C.ar    1  UNL1        0.0053
     34 C         140.0527  141.9069  166.3362 C.ar    1  UNL1        0.0175
     35 C         140.5739  141.8073  170.2692 C.3     1  UNL1        0.4186
     36 F         140.9750  142.2128  171.6565 F       1  UNL1       -0.1659
     37 F         139.2087  142.3863  170.4947 F       1  UNL1       -0.1659
     38 F         141.9392  141.2283  170.0437 F       1  UNL1       -0.1659
@<TRIPOS>BOND
     1     7     8    2
     2     8     9   am
     3     9    13    1
     4    13    14    1
     5    14    15    2
     6    15    16    1
     7    16    17    2
     8    17    18    1
     9    18    19    2
    10    19    20    1
    11    20    21    1
    12    21    22    2
    13     8    10   am
    14    10     1    1
    15     1     2    1
    16     2     3    1
    17     3     4    1
    18     4    23    1
    19    23    24    1
    20    24    25   ar
    21    25    26   ar
    22    26    27   ar
    23    27    29    1
    24    29    30   ar
    25    30    31   ar
    26    31    32   ar
    27    32    35    1
    28    35    36    1
    29    35    37    1
    30    35    38    1
    31    32    33   ar
    32    33    34   ar
    33    27    28   ar
    34     4     5    1
    35     5     6    1
    36    22    14    1
    37     6     1    1
    38    21    16    1
    39    28    24   ar
    40    34    29   ar
    41     9    11    1
    42    10    12    1
@<TRIPOS>MOLECULE
*****
 38 42 0 0 0
SMALL
GASTEIGER

@<TRIPOS>ATOM
      1 C         139.1712  141.8539  158.4937 C.3     1  UNL1        0.0758
      2 C         140.5513  141.6991  157.9268 C.3     1  UNL1        0.0370
      3 C         141.6222  141.0259  158.7331 C.3     1  UNL1        0.0741
      4 N         141.3130  140.5076  160.1063 N.3     1  UNL1       -0.2688
      5 C         139.9329  140.6623  160.6732 C.3     1  UNL1        0.0741
      6 C         138.8620  141.3355  159.8670 C.3     1  UNL1        0.0370
      7 O         137.3291  140.2168  156.7829 O.2     1  UNL1       -0.2528
      8 C         137.1793  141.7084  156.8320 C.2     1  UNL1        0.3011
      9 N         136.1084  142.3816  156.0258 N.am    1  UNL1       -0.2782
     10 N         138.1004  142.5270  157.6874 N.am    1  UNL1       -0.2905
     11 H         136.0101  143.3606  156.0580 H       1  UNL1        0.1515
     12 H         138.0020  143.5061  157.7197 H       1  UNL1        0.1509
     13 C         135.1874  141.5631  155.1704 C.3     1  UNL1        0.2162
     14 C         133.9625  140.9394  155.7709 C.2     1  UNL1        0.3713
     15 N         133.9427  139.8357  156.7865 N.2     1  UNL1       -0.0334
     16 C         132.5103  139.5241  157.1046 C.2     1  UNL1        0.2318
     17 C         131.8823  138.5284  158.0342 C.2     1  UNL1        0.0498
     18 C         130.3888  138.4438  158.1447 C.2     1  UNL1       -0.0002
     19 C         129.5233  139.3549  157.3256 C.2     1  UNL1       -0.0172
     20 C         130.1513  140.3506  156.3961 C.3     1  UNL1        0.1037
     21 C         131.6448  140.4352  156.2855 C.2     1  UNL1        0.2175
     22 N         132.5423  141.3099  155.4613 N.2     1  UNL1       -0.0372
     23 C         142.3839  139.8344  160.9125 C.3     1  UNL1        0.1007
     24 C         142.0563  139.2489  162.2541 C.ar    1  UNL1        0.0129
     25 C         141.7758  137.8034  162.5405 C.ar    1  UNL1        0.0176
     26 C         141.4978  137.6672  164.0082 C.ar    1  UNL1        0.0799
     27 N         141.6066  139.0285  164.6289 N.ar    1  UNL1       -0.3038
     28 C         141.9517  140.0060  163.5447 C.ar    1  UNL1        0.0772
     29 C         141.4055  139.3549  166.0791 C.ar    1  UNL1        0.0640
     30 C         140.0478  139.7537  166.5768 C.ar    1  UNL1        0.0175
     31 C         139.8467  140.0802  168.0270 C.ar    1  UNL1        0.0053
     32 C         141.0032  140.0078  168.9794 C.ar    1  UNL1        0.0715
     33 C         142.3610  139.6089  168.4817 C.ar    1  UNL1        0.0053
     34 C         142.5620  139.2825  167.0315 C.ar    1  UNL1        0.0175
     35 C         140.8021  140.3342  170.4296 C.3     1  UNL1        0.4186
     36 F         140.6010  140.6606  171.8797 F       1  UNL1       -0.1659
     37 F         142.2397  140.0052  170.7031 F       1  UNL1       -0.1659
     38 F         139.3644  140.6632  170.1562 F       1  UNL1       -0.1659
@<TRIPOS>BOND
     1     7     8    2
     2     8     9   am
     3     9    13    1
     4    13    14    1
     5    14    15    2
     6    15    16    1
     7    16    17    2
     8    17    18    1
     9    18    19    2
    10    19    20    1
    11    20    21    1
    12    21    22    2
    13     8    10   am
    14    10     1    1
    15     1     2    1
    16     2     3    1
    17     3     4    1
    18     4    23    1
    19    23    24    1
    20    24    25   ar
    21    25    26   ar
    22    26    27   ar
    23    27    29    1
    24    29    30   ar
    25    30    31   ar
    26    31    32   ar
    27    32    35    1
    28    35    36    1
    29    35    37    1
    30    35    38    1
    31    32    33   ar
    32    33    34   ar
    33    27    28   ar
    34     4     5    1
    35     5     6    1
    36    22    14    1
    37     6     1    1
    38    21    16    1
    39    28    24   ar
    40    34    29   ar
    41     9    11    1
    42    10    12    1
@<TRIPOS>MOLECULE
*****
 38 42 0 0 0
SMALL
GASTEIGER

@<TRIPOS>ATOM
      1 C         144.1733  142.6354  158.5106 C.3     1  UNL1        0.0758
      2 C         144.2668  142.4469  159.9957 C.3     1  UNL1        0.0370
      3 C         143.3549  143.2126  160.9078 C.3     1  UNL1        0.0741
      4 N         142.3493  144.1668  160.3349 N.3     1  UNL1       -0.2688
      5 C         142.2557  144.3553  158.8496 C.3     1  UNL1        0.0741
      6 C         143.1677  143.5896  157.9375 C.3     1  UNL1        0.0370
      7 O         143.0284  141.0075  156.2657 O.2     1  UNL1       -0.2528
      8 C         144.5128  141.0557  156.4760 C.2     1  UNL1        0.3011
      9 N         145.4248  140.2900  155.5638 N.am    1  UNL1       -0.2782
     10 N         145.0852  141.8697  157.5984 N.am    1  UNL1       -0.2905
     11 H         146.3990  140.3217  155.7018 H       1  UNL1        0.1515
     12 H         146.0595  141.9014  157.7364 H       1  UNL1        0.1509
     13 C         144.8524  139.4761  154.4415 C.3     1  UNL1        0.2162
     14 C         144.1853  138.1641  154.7308 C.2     1  UNL1        0.3713
     15 N         142.8622  137.7094  154.1898 N.2     1  UNL1       -0.0334
     16 C         142.5834  136.3407  154.7365 C.2     1  UNL1        0.2318
     17 C         141.4303  135.4002  154.5476 C.2     1  UNL1        0.0498
     18 C         141.4281  134.0683  155.2376 C.2     1  UNL1       -0.0002
     19 C         142.5789  133.6770  156.1165 C.2     1  UNL1       -0.0172
     20 C         143.7320  134.6176  156.3055 C.3     1  UNL1        0.1037
     21 C         143.7343  135.9494  155.6154 C.2     1  UNL1        0.2175
     22 N         144.7243  137.0763  155.6119 N.2     1  UNL1       -0.0372
     23 C         141.4373  144.9325  161.2470 C.3     1  UNL1        0.1007
     24 C         140.9846  144.3220  162.5402 C.ar    1  UNL1        0.0129
     25 C         140.9933  144.9920  163.8822 C.ar    1  UNL1        0.0176
     26 C         140.4578  144.0185  164.8899 C.ar    1  UNL1        0.0799
     27 N         140.1181  142.7467  164.1705 N.ar    1  UNL1       -0.3038
     28 C         140.4437  142.9343  162.7184 C.ar    1  UNL1        0.0772
     29 C         139.5522  141.5053  164.7940 C.ar    1  UNL1        0.0640
     30 C         139.8186  141.2033  166.2389 C.ar    1  UNL1        0.0175
     31 C         139.2527  139.9618  166.8623 C.ar    1  UNL1        0.0053
     32 C         138.4204  139.0225  166.0409 C.ar    1  UNL1        0.0715
     33 C         138.1539  139.3245  164.5959 C.ar    1  UNL1        0.0053
     34 C         138.7199  140.5659  163.9725 C.ar    1  UNL1        0.0175
     35 C         137.8545  137.7811  166.6643 C.3     1  UNL1        0.4186
     36 F         137.2886  136.5397  167.2877 F       1  UNL1       -0.1659
     37 F         138.4262  136.9594  165.5473 F       1  UNL1       -0.1659
     38 F         137.2827  138.6027  167.7815 F       1  UNL1       -0.1659
@<TRIPOS>BOND
     1     7     8    2
     2     8     9   am
     3     9    13    1
     4    13    14    1
     5    14    15    2
     6    15    16    1
     7    16    17    2
     8    17    18    1
     9    18    19    2
    10    19    20    1
    11    20    21    1
    12    21    22    2
    13     8    10   am
    14    10     1    1
    15     1     2    1
    16     2     3    1
    17     3     4    1
    18     4    23    1
    19    23    24    1
    20    24    25   ar
    21    25    26   ar
    22    26    27   ar
    23    27    29    1
    24    29    30   ar
    25    30    31   ar
    26    31    32   ar
    27    32    35    1
    28    35    36    1
    29    35    37    1
    30    35    38    1
    31    32    33   ar
    32    33    34   ar
    33    27    28   ar
    34     4     5    1
    35     5     6    1
    36    22    14    1
    37     6     1    1
    38    21    16    1
    39    28    24   ar
    40    34    29   ar
    41     9    11    1
    42    10    12    1
@<TRIPOS>MOLECULE
*****
 38 42 0 0 0
SMALL
GASTEIGER

@<TRIPOS>ATOM
      1 C         142.0536  139.4533  158.8706 C.3     1  UNL1        0.0758
      2 C         142.0178  140.8974  158.4667 C.3     1  UNL1        0.0370
      3 C         142.8509  141.9034  159.2043 C.3     1  UNL1        0.0741
      4 N         143.7197  141.4652  160.3458 N.3     1  UNL1       -0.2688
      5 C         143.7556  140.0210  160.7498 C.3     1  UNL1        0.0741
      6 C         142.9225  139.0150  160.0121 C.3     1  UNL1        0.0370
      7 O         143.3627  137.4943  157.0134 O.2     1  UNL1       -0.2528
      8 C         141.8752  137.4678  157.2044 C.2     1  UNL1        0.3011
      9 N         141.0421  136.4619  156.4668 N.am    1  UNL1       -0.2782
     10 N         141.2206  138.4473  158.1330 N.am    1  UNL1       -0.2905
     11 H         140.0658  136.4445  156.5921 H       1  UNL1        0.1515
     12 H         140.2443  138.4299  158.2583 H       1  UNL1        0.1509
     13 C         141.6966  135.4824  155.5382 C.3     1  UNL1        0.2162
     14 C         142.3954  134.2760  156.0917 C.2     1  UNL1        0.3713
     15 N         143.6854  134.2781  156.8571 N.2     1  UNL1       -0.0334
     16 C         144.0141  132.8591  157.2154 C.2     1  UNL1        0.2318
     17 C         145.1627  132.2539  157.9667 C.2     1  UNL1        0.0498
     18 C         145.2244  130.7697  158.1740 C.2     1  UNL1       -0.0002
     19 C         144.1376  129.8905  157.6300 C.2     1  UNL1       -0.0172
     20 C         142.9890  130.4957  156.8787 C.3     1  UNL1        0.1037
     21 C         142.9273  131.9800  156.6714 C.2     1  UNL1        0.2175
     22 N         141.9269  132.8557  155.9769 N.2     1  UNL1       -0.0372
     23 C         144.5528  142.4712  161.0834 C.3     1  UNL1        0.1007
     24 C         144.0932  142.9966  162.4110 C.ar    1  UNL1        0.0129
     25 C         144.1000  144.4337  162.8408 C.ar    1  UNL1        0.0176
     26 C         143.5571  144.5026  164.2374 C.ar    1  UNL1        0.0799
     27 N         143.2148  143.1079  164.6708 N.ar    1  UNL1       -0.3038
     28 C         143.5461  142.1772  163.5421 C.ar    1  UNL1        0.0772
     29 C         142.6417  142.7132  165.9997 C.ar    1  UNL1        0.0640
     30 C         143.5489  142.5075  167.1764 C.ar    1  UNL1        0.0175
     31 C         142.9758  142.1128  168.5052 C.ar    1  UNL1        0.0053
     32 C         141.4956  141.9239  168.6574 C.ar    1  UNL1        0.0715
     33 C         140.5883  142.1297  167.4807 C.ar    1  UNL1        0.0053
     34 C         141.1614  142.5243  166.1518 C.ar    1  UNL1        0.0175
     35 C         140.9225  141.5293  169.9863 C.3     1  UNL1        0.4186
     36 F         140.3495  141.1347  171.3151 F       1  UNL1       -0.1659
     37 F         142.2705  141.7057  170.6200 F       1  UNL1       -0.1659
     38 F         139.5744  141.3529  169.3526 F       1  UNL1       -0.1659
@<TRIPOS>BOND
     1     7     8    2
     2     8     9   am
     3     9    13    1
     4    13    14    1
     5    14    15    2
     6    15    16    1
     7    16    17    2
     8    17    18    1
     9    18    19    2
    10    19    20    1
    11    20    21    1
    12    21    22    2
    13     8    10   am
    14    10     1    1
    15     1     2    1
    16     2     3    1
    17     3     4    1
    18     4    23    1
    19    23    24    1
    20    24    25   ar
    21    25    26   ar
    22    26    27   ar
    23    27    29    1
    24    29    30   ar
    25    30    31   ar
    26    31    32   ar
    27    32    35    1
    28    35    36    1
    29    35    37    1
    30    35    38    1
    31    32    33   ar
    32    33    34   ar
    33    27    28   ar
    34     4     5    1
    35     5     6    1
    36    22    14    1
    37     6     1    1
    38    21    16    1
    39    28    24   ar
    40    34    29   ar
    41     9    11    1
    42    10    12    1
@<TRIPOS>MOLECULE
*****
 38 42 0 0 0
SMALL
GASTEIGER

@<TRIPOS>ATOM
      1 C         139.6931  141.8960  159.0993 C.3     1  UNL1        0.0758
      2 C         141.0520  142.4496  158.7882 C.3     1  UNL1        0.0370
      3 C         141.7087  143.4046  159.7405 C.3     1  UNL1        0.0741
      4 N         141.0066  143.8059  161.0037 N.3     1  UNL1       -0.2688
      5 C         139.6476  143.2522  161.3148 C.3     1  UNL1        0.0741
      6 C         138.9908  142.2973  160.3626 C.3     1  UNL1        0.0370
      7 O         137.3218  142.7782  157.4871 O.2     1  UNL1       -0.2528
      8 C         137.8507  141.3821  157.3410 C.2     1  UNL1        0.3011
      9 N         137.1939  140.4272  156.3887 N.am    1  UNL1       -0.2782
     10 N         139.0363  140.9410  158.1470 N.am    1  UNL1       -0.2905
     11 H         137.5410  139.5109  156.2928 H       1  UNL1        0.1515
     12 H         139.3834  140.0247  158.0511 H       1  UNL1        0.1509
     13 C         136.0083  140.8682  155.5827 C.3     1  UNL1        0.2162
     14 C         134.6224  140.5049  156.0267 C.2     1  UNL1        0.3713
     15 N         133.3455  141.0837  155.4933 N.2     1  UNL1       -0.0334
     16 C         132.2039  140.4355  156.2190 C.2     1  UNL1        0.2318
     17 C         130.7180  140.6106  156.1125 C.2     1  UNL1        0.0498
     18 C         129.8035  139.8062  156.9880 C.2     1  UNL1       -0.0002
     19 C         130.3748  138.8267  157.9699 C.2     1  UNL1       -0.0172
     20 C         131.8607  138.6516  158.0763 C.3     1  UNL1        0.1037
     21 C         132.7753  139.4560  157.2009 C.2     1  UNL1        0.2175
     22 N         134.2700  139.4989  157.0820 N.2     1  UNL1       -0.0372
     23 C         141.6633  144.7608  161.9559 C.3     1  UNL1        0.1007
     24 C         142.3609  144.2408  163.1778 C.ar    1  UNL1        0.0129
     25 C         143.6432  144.7664  163.7519 C.ar    1  UNL1        0.0176
     26 C         143.9734  143.9543  164.9690 C.ar    1  UNL1        0.0799
     27 N         142.8952  142.9268  165.1472 N.ar    1  UNL1       -0.3038
     28 C         141.8986  143.1039  164.0402 C.ar    1  UNL1        0.0772
     29 C         142.8257  141.9021  166.2405 C.ar    1  UNL1        0.0640
     30 C         142.9831  142.3211  167.6721 C.ar    1  UNL1        0.0175
     31 C         142.9137  141.2964  168.7654 C.ar    1  UNL1        0.0053
     32 C         142.6869  139.8528  168.4270 C.ar    1  UNL1        0.0715
     33 C         142.5295  139.4338  166.9953 C.ar    1  UNL1        0.0053
     34 C         142.5989  140.4585  165.9021 C.ar    1  UNL1        0.0175
     35 C         142.6174  138.8281  169.5203 C.3     1  UNL1        0.4186
     36 F         142.5480  137.8034  170.6135 F       1  UNL1       -0.1659
     37 F         143.4112  137.8747  168.6772 F       1  UNL1       -0.1659
     38 F         141.8236  139.7815  170.3635 F       1  UNL1       -0.1659
@<TRIPOS>BOND
     1     7     8    2
     2     8     9   am
     3     9    13    1
     4    13    14    1
     5    14    15    2
     6    15    16    1
     7    16    17    2
     8    17    18    1
     9    18    19    2
    10    19    20    1
    11    20    21    1
    12    21    22    2
    13     8    10   am
    14    10     1    1
    15     1     2    1
    16     2     3    1
    17     3     4    1
    18     4    23    1
    19    23    24    1
    20    24    25   ar
    21    25    26   ar
    22    26    27   ar
    23    27    29    1
    24    29    30   ar
    25    30    31   ar
    26    31    32   ar
    27    32    35    1
    28    35    36    1
    29    35    37    1
    30    35    38    1
    31    32    33   ar
    32    33    34   ar
    33    27    28   ar
    34     4     5    1
    35     5     6    1
    36    22    14    1
    37     6     1    1
    38    21    16    1
    39    28    24   ar
    40    34    29   ar
    41     9    11    1
    42    10    12    1
