@<TRIPOS>MOLECULE
*****
 33 36 0 0 0
SMALL
GASTEIGER

@<TRIPOS>ATOM
      1 N         141.2190  144.6324  162.7746 N.3     1  UNL1       -0.2710
      2 C         142.2869  144.7522  163.8211 C.3     1  UNL1        0.0735
      3 C         143.6349  144.1358  163.5910 C.3     1  UNL1        0.0331
      4 C         143.9149  143.3996  162.3145 C.3     1  UNL1        0.0570
      5 C         142.8469  143.2798  161.2680 C.3     1  UNL1        0.0331
      6 C         141.4990  143.8962  161.4981 C.3     1  UNL1        0.0735
      7 N         145.2629  142.7831  162.0844 N.3     1  UNL1       -0.2947
      8 H         145.9524  143.5214  162.2259 H       1  UNL1        0.1235
      9 C         145.7043  141.6137  162.9136 C.3     1  UNL1        0.0972
     10 C         144.7034  140.5881  163.3566 C.ar    1  UNL1        0.0135
     11 C         143.9265  139.8090  162.3371 C.ar    1  UNL1        0.0955
     12 N         142.9256  138.7834  162.7801 N.ar    1  UNL1       -0.2477
     13 C         142.7016  138.5368  164.2427 C.ar    1  UNL1        0.0689
     14 C         141.7007  137.5112  164.6857 C.3     1  UNL1        0.0528
     15 C         143.4785  139.3159  165.2622 C.ar    1  UNL1        0.0817
     16 C         144.4794  140.3416  164.8191 C.ar    1  UNL1        0.0101
     17 C         143.2545  139.0694  166.7247 C.1     1  UNL1        0.1016
     18 N         143.0306  138.8229  168.1873 N.1     1  UNL1       -0.1908
     19 C         139.8709  145.2488  163.0048 C.3     1  UNL1        0.0970
     20 C         138.9337  144.6488  164.0105 C.3     1  UNL1        0.1279
     21 C         140.3776  142.1718  167.4789 C.ar    1  UNL1        0.2264
     22 C         140.1404  140.6908  167.4930 C.ar    1  UNL1        0.0594
     23 C         139.4220  140.0354  166.3509 C.ar    1  UNL1        0.0270
     24 C         138.9407  140.8610  165.1948 C.ar    1  UNL1        0.1158
     25 N         138.2223  140.2056  164.0527 N.ar    1  UNL1       -0.2358
     26 C         137.7410  141.0313  162.8966 C.ar    1  UNL1        0.1595
     27 C         137.9781  142.5124  162.8825 C.ar    1  UNL1        0.2813
     28 O         137.4968  143.3380  161.7264 O.2     1  UNL1       -0.2652
     29 N         138.6966  143.1678  164.0246 N.ar    1  UNL1       -0.2766
     30 C         139.1779  142.3421  165.1807 C.ar    1  UNL1        0.1670
     31 N         139.8963  142.9975  166.3228 N.ar    1  UNL1       -0.1926
     32 C         142.5000  142.4197  168.9567 C.3     1  UNL1        0.2542
     33 O         141.0960  142.8272  168.6210 O.3     1  UNL1       -0.4561
@<TRIPOS>BOND
     1    32    33    1
     2    33    21    1
     3    21    22   ar
     4    22    23   ar
     5    23    24   ar
     6    24    25   ar
     7    25    26   ar
     8    26    27   ar
     9    27    28    2
    10    27    29   ar
    11    29    20    1
    12    20    19    1
    13    19     1    1
    14     1     2    1
    15     2     3    1
    16     3     4    1
    17     4     7    1
    18     7     9    1
    19     9    10    1
    20    10    11   ar
    21    11    12   ar
    22    12    13   ar
    23    13    14    1
    24    13    15   ar
    25    15    17    1
    26    17    18    3
    27    15    16   ar
    28     4     5    1
    29     5     6    1
    30    29    30   ar
    31    30    31   ar
    32    31    21   ar
    33    30    24   ar
    34     6     1    1
    35    16    10   ar
    36     7     8    1
@<TRIPOS>MOLECULE
*****
 33 36 0 0 0
SMALL
GASTEIGER

@<TRIPOS>ATOM
      1 N         137.9339  142.8170  162.8245 N.3     1  UNL1       -0.2710
      2 C         137.8386  141.9134  164.0180 C.3     1  UNL1        0.0735
      3 C         137.9112  140.4258  163.8402 C.3     1  UNL1        0.0331
      4 C         138.0790  139.8418  162.4688 C.3     1  UNL1        0.0570
      5 C         138.1743  140.7454  161.2753 C.3     1  UNL1        0.0331
      6 C         138.1017  142.2330  161.4532 C.3     1  UNL1        0.0735
      7 N         138.1516  138.3541  162.2909 N.3     1  UNL1       -0.2947
      8 H         138.5176  138.1871  161.3535 H       1  UNL1        0.1235
      9 C         138.9757  137.5256  163.2314 C.3     1  UNL1        0.0972
     10 C         140.3902  137.9207  163.5362 C.ar    1  UNL1        0.0135
     11 C         141.4105  137.9629  162.4375 C.ar    1  UNL1        0.0955
     12 N         142.8250  138.3580  162.7424 N.ar    1  UNL1       -0.2477
     13 C         143.2193  138.7111  164.1460 C.ar    1  UNL1        0.0689
     14 C         144.6338  139.1062  164.4509 C.3     1  UNL1        0.0528
     15 C         142.1989  138.6689  165.2447 C.ar    1  UNL1        0.0817
     16 C         140.7843  138.2738  164.9398 C.ar    1  UNL1        0.0101
     17 C         142.5931  139.0220  166.6482 C.1     1  UNL1        0.1016
     18 N         142.9873  139.3750  168.0518 N.1     1  UNL1       -0.1908
     19 C         137.8613  144.3047  163.0025 C.3     1  UNL1        0.0970
     20 C         139.1136  145.0924  163.2502 C.3     1  UNL1        0.1279
     21 C         142.2098  142.8233  165.5984 C.ar    1  UNL1        0.2264
     22 C         143.4956  142.4131  164.9439 C.ar    1  UNL1        0.0594
     23 C         143.7494  142.7593  163.5067 C.ar    1  UNL1        0.0270
     24 C         142.7173  143.5157  162.7239 C.ar    1  UNL1        0.1158
     25 N         142.9711  143.8619  161.2866 N.ar    1  UNL1       -0.2358
     26 C         141.9390  144.6182  160.5039 C.ar    1  UNL1        0.1595
     27 C         140.6531  145.0284  161.1584 C.ar    1  UNL1        0.2813
     28 O         139.6211  145.7848  160.3756 O.2     1  UNL1       -0.2652
     29 N         140.3994  144.6822  162.5956 N.ar    1  UNL1       -0.2766
     30 C         141.4315  143.9258  163.3784 C.ar    1  UNL1        0.1670
     31 N         141.1778  143.5796  164.8157 N.ar    1  UNL1       -0.1926
     32 C         140.5489  142.3510  167.5397 C.3     1  UNL1        0.2542
     33 O         141.9561  142.4771  167.0357 O.3     1  UNL1       -0.4561
@<TRIPOS>BOND
     1    32    33    1
     2    33    21    1
     3    21    22   ar
     4    22    23   ar
     5    23    24   ar
     6    24    25   ar
     7    25    26   ar
     8    26    27   ar
     9    27    28    2
    10    27    29   ar
    11    29    20    1
    12    20    19    1
    13    19     1    1
    14     1     2    1
    15     2     3    1
    16     3     4    1
    17     4     7    1
    18     7     9    1
    19     9    10    1
    20    10    11   ar
    21    11    12   ar
    22    12    13   ar
    23    13    14    1
    24    13    15   ar
    25    15    17    1
    26    17    18    3
    27    15    16   ar
    28     4     5    1
    29     5     6    1
    30    29    30   ar
    31    30    31   ar
    32    31    21   ar
    33    30    24   ar
    34     6     1    1
    35    16    10   ar
    36     7     8    1
@<TRIPOS>MOLECULE
*****
 33 36 0 0 0
SMALL
GASTEIGER

@<TRIPOS>ATOM
      1 N         144.4333  140.1361  163.5408 N.3     1  UNL1       -0.2710
      2 C         143.7961  139.3151  164.6224 C.3     1  UNL1        0.0735
      3 C         142.7253  138.3227  164.2783 C.3     1  UNL1        0.0331
      4 C         142.2918  138.1513  162.8526 C.3     1  UNL1        0.0570
      5 C         142.9290  138.9723  161.7710 C.3     1  UNL1        0.0331
      6 C         143.9998  139.9647  162.1151 C.3     1  UNL1        0.0735
      7 N         141.2209  137.1588  162.5084 N.3     1  UNL1       -0.2947
      8 H         141.5708  136.2409  162.7832 H       1  UNL1        0.1235
      9 C         139.8513  137.2963  163.1045 C.3     1  UNL1        0.0972
     10 C         139.2683  138.6584  163.3380 C.ar    1  UNL1        0.0135
     11 C         138.7929  139.0462  164.7068 C.ar    1  UNL1        0.0955
     12 N         138.2099  140.4084  164.9403 N.ar    1  UNL1       -0.2477
     13 C         138.1021  141.3828  163.8049 C.ar    1  UNL1        0.0689
     14 C         137.5191  142.7449  164.0384 C.3     1  UNL1        0.0528
     15 C         138.5775  140.9950  162.4361 C.ar    1  UNL1        0.0817
     16 C         139.1606  139.6327  162.2027 C.ar    1  UNL1        0.0101
     17 C         138.4698  141.9693  161.3008 C.1     1  UNL1        0.1016
     18 N         138.3621  142.9437  160.1654 N.1     1  UNL1       -0.1908
     19 C         145.5042  141.1286  163.8850 C.3     1  UNL1        0.0970
     20 C         145.1377  142.5491  164.1977 C.3     1  UNL1        0.1279
     21 C         142.2914  142.0795  167.6515 C.ar    1  UNL1        0.2264
     22 C         140.8682  142.5337  167.5175 C.ar    1  UNL1        0.0594
     23 C         140.3937  143.1445  166.2323 C.ar    1  UNL1        0.0270
     24 C         141.3424  143.3011  165.0811 C.ar    1  UNL1        0.1158
     25 N         140.8679  143.9119  163.7959 N.ar    1  UNL1       -0.2358
     26 C         141.8166  144.0684  162.6446 C.ar    1  UNL1        0.1595
     27 C         143.2399  143.6142  162.7786 C.ar    1  UNL1        0.2813
     28 O         144.1886  143.7707  161.6273 O.2     1  UNL1       -0.2652
     29 N         143.7144  143.0034  164.0638 N.ar    1  UNL1       -0.2766
     30 C         142.7656  142.8468  165.2150 C.ar    1  UNL1        0.1670
     31 N         143.2401  142.2360  166.5003 N.ar    1  UNL1       -0.1926
     32 C         143.7167  142.2220  169.8190 C.3     1  UNL1        0.2542
     33 O         142.7659  141.4687  168.9367 O.3     1  UNL1       -0.4561
@<TRIPOS>BOND
     1    32    33    1
     2    33    21    1
     3    21    22   ar
     4    22    23   ar
     5    23    24   ar
     6    24    25   ar
     7    25    26   ar
     8    26    27   ar
     9    27    28    2
    10    27    29   ar
    11    29    20    1
    12    20    19    1
    13    19     1    1
    14     1     2    1
    15     2     3    1
    16     3     4    1
    17     4     7    1
    18     7     9    1
    19     9    10    1
    20    10    11   ar
    21    11    12   ar
    22    12    13   ar
    23    13    14    1
    24    13    15   ar
    25    15    17    1
    26    17    18    3
    27    15    16   ar
    28     4     5    1
    29     5     6    1
    30    29    30   ar
    31    30    31   ar
    32    31    21   ar
    33    30    24   ar
    34     6     1    1
    35    16    10   ar
    36     7     8    1
@<TRIPOS>MOLECULE
*****
 33 36 0 0 0
SMALL
GASTEIGER

@<TRIPOS>ATOM
      1 N         142.4810  144.0831  163.3023 N.3     1  UNL1       -0.2710
      2 C         141.3287  144.3431  164.2269 C.3     1  UNL1        0.0735
      3 C         139.9247  144.0850  163.7665 C.3     1  UNL1        0.0331
      4 C         139.6729  143.5670  162.3815 C.3     1  UNL1        0.0570
      5 C         140.8251  143.3069  161.4570 C.3     1  UNL1        0.0331
      6 C         142.2291  143.5650  161.9174 C.3     1  UNL1        0.0735
      7 N         138.2688  143.3089  161.9210 N.3     1  UNL1       -0.2947
      8 H         138.1458  143.8229  161.0486 H       1  UNL1        0.1235
      9 C         137.8100  141.9040  161.6642 C.3     1  UNL1        0.0972
     10 C         138.4406  140.7620  162.4045 C.ar    1  UNL1        0.0135
     11 C         139.4805  139.9154  161.7324 C.ar    1  UNL1        0.0955
     12 N         140.1111  138.7734  162.4727 N.ar    1  UNL1       -0.2477
     13 C         139.7017  138.4779  163.8852 C.ar    1  UNL1        0.0689
     14 C         140.3322  137.3358  164.6255 C.3     1  UNL1        0.0528
     15 C         138.6617  139.3244  164.5573 C.ar    1  UNL1        0.0817
     16 C         138.0311  140.4665  163.8170 C.ar    1  UNL1        0.0101
     17 C         138.2523  139.0289  165.9698 C.1     1  UNL1        0.1016
     18 N         137.8428  138.7334  167.3823 N.1     1  UNL1       -0.1908
     19 C         143.8851  144.3412  163.7628 C.3     1  UNL1        0.0970
     20 C         144.4574  143.5521  164.9029 C.3     1  UNL1        0.1279
     21 C         141.4297  141.8547  167.7667 C.ar    1  UNL1        0.2264
     22 C         141.2122  140.3722  167.8366 C.ar    1  UNL1        0.0594
     23 C         142.0040  139.4555  166.9519 C.ar    1  UNL1        0.0270
     24 C         143.0132  140.0213  165.9973 C.ar    1  UNL1        0.1158
     25 N         143.8050  139.1046  165.1126 N.ar    1  UNL1       -0.2358
     26 C         144.8142  139.6703  164.1580 C.ar    1  UNL1        0.1595
     27 C         145.0317  141.1529  164.0880 C.ar    1  UNL1        0.2813
     28 O         146.0410  141.7187  163.1334 O.2     1  UNL1       -0.2652
     29 N         144.2400  142.0696  164.9728 N.ar    1  UNL1       -0.2766
     30 C         143.2307  141.5038  165.9274 C.ar    1  UNL1        0.1670
     31 N         142.4389  142.4205  166.8121 N.ar    1  UNL1       -0.1926
     32 C         140.0892  142.2681  169.9535 C.3     1  UNL1        0.2542
     33 O         140.6379  142.7714  168.6514 O.3     1  UNL1       -0.4561
@<TRIPOS>BOND
     1    32    33    1
     2    33    21    1
     3    21    22   ar
     4    22    23   ar
     5    23    24   ar
     6    24    25   ar
     7    25    26   ar
     8    26    27   ar
     9    27    28    2
    10    27    29   ar
    11    29    20    1
    12    20    19    1
    13    19     1    1
    14     1     2    1
    15     2     3    1
    16     3     4    1
    17     4     7    1
    18     7     9    1
    19     9    10    1
    20    10    11   ar
    21    11    12   ar
    22    12    13   ar
    23    13    14    1
    24    13    15   ar
    25    15    17    1
    26    17    18    3
    27    15    16   ar
    28     4     5    1
    29     5     6    1
    30    29    30   ar
    31    30    31   ar
    32    31    21   ar
    33    30    24   ar
    34     6     1    1
    35    16    10   ar
    36     7     8    1
@<TRIPOS>MOLECULE
*****
 33 36 0 0 0
SMALL
GASTEIGER

@<TRIPOS>ATOM
      1 N         138.0845  140.9354  163.5194 N.3     1  UNL1       -0.2710
      2 C         138.1630  142.0256  164.5467 C.3     1  UNL1        0.0735
      3 C         138.2521  143.4590  164.1139 C.3     1  UNL1        0.0331
      4 C         138.2626  143.8022  162.6537 C.3     1  UNL1        0.0570
      5 C         138.1841  142.7120  161.6264 C.3     1  UNL1        0.0331
      6 C         138.0950  141.2786  162.0593 C.3     1  UNL1        0.0735
      7 N         138.3517  145.2356  162.2208 N.3     1  UNL1       -0.2947
      8 H         137.6593  145.7510  162.7644 H       1  UNL1        0.1235
      9 C         139.6473  145.9799  162.3530 C.3     1  UNL1        0.0972
     10 C         140.9493  145.2403  162.2653 C.ar    1  UNL1        0.0135
     11 C         141.4248  144.7128  160.9441 C.ar    1  UNL1        0.0955
     12 N         142.7269  143.9733  160.8564 N.ar    1  UNL1       -0.2477
     13 C         143.5535  143.7612  162.0900 C.ar    1  UNL1        0.0689
     14 C         144.8556  143.0217  162.0024 C.3     1  UNL1        0.0528
     15 C         143.0780  144.2887  163.4113 C.ar    1  UNL1        0.0817
     16 C         141.7759  145.0283  163.4989 C.ar    1  UNL1        0.0101
     17 C         143.9046  144.0767  164.6449 C.1     1  UNL1        0.1016
     18 N         144.7313  143.8647  165.8785 N.1     1  UNL1       -0.1908
     19 C         137.9954  139.5019  163.9523 C.3     1  UNL1        0.0970
     20 C         139.2404  138.6722  164.0596 C.3     1  UNL1        0.1279
     21 C         140.6410  140.0415  168.1110 C.ar    1  UNL1        0.2264
     22 C         141.9766  140.7084  168.2568 C.ar    1  UNL1        0.0594
     23 C         142.8453  140.9190  167.0522 C.ar    1  UNL1        0.0270
     24 C         142.3785  140.4626  165.7018 C.ar    1  UNL1        0.1158
     25 N         143.2472  140.6731  164.4973 N.ar    1  UNL1       -0.2358
     26 C         142.7803  140.2167  163.1468 C.ar    1  UNL1        0.1595
     27 C         141.4447  139.5497  163.0009 C.ar    1  UNL1        0.2813
     28 O         140.9778  139.0933  161.6505 O.2     1  UNL1       -0.2652
     29 N         140.5760  139.3391  164.2055 N.ar    1  UNL1       -0.2766
     30 C         141.0429  139.7956  165.5560 C.ar    1  UNL1        0.1670
     31 N         140.1741  139.5851  166.7605 N.ar    1  UNL1       -0.1926
     32 C         140.2866  140.1781  170.6811 C.3     1  UNL1        0.2542
     33 O         139.7723  139.8309  169.3155 O.3     1  UNL1       -0.4561
@<TRIPOS>BOND
     1    32    33    1
     2    33    21    1
     3    21    22   ar
     4    22    23   ar
     5    23    24   ar
     6    24    25   ar
     7    25    26   ar
     8    26    27   ar
     9    27    28    2
    10    27    29   ar
    11    29    20    1
    12    20    19    1
    13    19     1    1
    14     1     2    1
    15     2     3    1
    16     3     4    1
    17     4     7    1
    18     7     9    1
    19     9    10    1
    20    10    11   ar
    21    11    12   ar
    22    12    13   ar
    23    13    14    1
    24    13    15   ar
    25    15    17    1
    26    17    18    3
    27    15    16   ar
    28     4     5    1
    29     5     6    1
    30    29    30   ar
    31    30    31   ar
    32    31    21   ar
    33    30    24   ar
    34     6     1    1
    35    16    10   ar
    36     7     8    1
@<TRIPOS>MOLECULE
*****
 33 36 0 0 0
SMALL
GASTEIGER

@<TRIPOS>ATOM
      1 N         142.9249  141.3102  166.6427 N.3     1  UNL1       -0.2710
      2 C         143.0099  139.8131  166.6792 C.3     1  UNL1        0.0735
      3 C         143.6050  139.0672  165.5218 C.3     1  UNL1        0.0331
      4 C         144.1150  139.8185  164.3279 C.3     1  UNL1        0.0570
      5 C         144.0300  141.3156  164.2914 C.3     1  UNL1        0.0331
      6 C         143.4350  142.0615  165.4488 C.3     1  UNL1        0.0735
      7 N         144.7102  139.0726  163.1705 N.3     1  UNL1       -0.2947
      8 H         144.8496  138.1109  163.4804 H       1  UNL1        0.1235
      9 C         143.9753  139.0046  161.8646 C.3     1  UNL1        0.0972
     10 C         142.4886  138.8067  161.8500 C.ar    1  UNL1        0.0135
     11 C         141.8827  137.6225  162.5433 C.ar    1  UNL1        0.0955
     12 N         140.3959  137.4246  162.5287 N.ar    1  UNL1       -0.2477
     13 C         139.5149  138.4109  161.8209 C.ar    1  UNL1        0.0689
     14 C         138.0281  138.2130  161.8063 C.3     1  UNL1        0.0528
     15 C         140.1207  139.5951  161.1276 C.ar    1  UNL1        0.0817
     16 C         141.6076  139.7930  161.1422 C.ar    1  UNL1        0.0101
     17 C         139.2398  140.5815  160.4198 C.1     1  UNL1        0.1016
     18 N         138.3588  141.5678  159.7119 N.1     1  UNL1       -0.1908
     19 C         142.3298  142.0561  167.8001 C.3     1  UNL1        0.0970
     20 C         140.8540  142.3213  167.8424 C.3     1  UNL1        0.1279
     21 C         139.1826  143.7952  163.9329 C.ar    1  UNL1        0.2264
     22 C         138.2424  142.9312  163.1459 C.ar    1  UNL1        0.0594
     23 C         137.8594  141.5758  163.6620 C.ar    1  UNL1        0.0270
     24 C         138.4165  141.0845  164.9651 C.ar    1  UNL1        0.1158
     25 N         138.0335  139.7292  165.4812 N.ar    1  UNL1       -0.2358
     26 C         138.5906  139.2379  166.7843 C.ar    1  UNL1        0.1595
     27 C         139.5309  140.1020  167.5714 C.ar    1  UNL1        0.2813
     28 O         140.0880  139.6107  168.8746 O.2     1  UNL1       -0.2652
     29 N         139.9139  141.4573  167.0553 N.ar    1  UNL1       -0.2766
     30 C         139.3567  141.9486  165.7521 C.ar    1  UNL1        0.1670
     31 N         139.7397  143.3039  165.2361 N.ar    1  UNL1       -0.1926
     32 C         139.7922  145.3575  161.9486 C.3     1  UNL1        0.2542
     33 O         139.5656  145.1505  163.4168 O.3     1  UNL1       -0.4561
@<TRIPOS>BOND
     1    32    33    1
     2    33    21    1
     3    21    22   ar
     4    22    23   ar
     5    23    24   ar
     6    24    25   ar
     7    25    26   ar
     8    26    27   ar
     9    27    28    2
    10    27    29   ar
    11    29    20    1
    12    20    19    1
    13    19     1    1
    14     1     2    1
    15     2     3    1
    16     3     4    1
    17     4     7    1
    18     7     9    1
    19     9    10    1
    20    10    11   ar
    21    11    12   ar
    22    12    13   ar
    23    13    14    1
    24    13    15   ar
    25    15    17    1
    26    17    18    3
    27    15    16   ar
    28     4     5    1
    29     5     6    1
    30    29    30   ar
    31    30    31   ar
    32    31    21   ar
    33    30    24   ar
    34     6     1    1
    35    16    10   ar
    36     7     8    1
@<TRIPOS>MOLECULE
*****
 33 36 0 0 0
SMALL
GASTEIGER

@<TRIPOS>ATOM
      1 N         143.3074  140.4313  160.5250 N.3     1  UNL1       -0.2710
      2 C         144.1258  139.3826  161.2181 C.3     1  UNL1        0.0735
      3 C         143.4463  138.2697  161.9596 C.3     1  UNL1        0.0331
      4 C         141.9485  138.2056  162.0080 C.3     1  UNL1        0.0570
      5 C         141.1301  139.2544  161.3149 C.3     1  UNL1        0.0331
      6 C         141.8096  140.3672  160.5734 C.3     1  UNL1        0.0735
      7 N         141.2690  137.0927  162.7496 N.3     1  UNL1       -0.2947
      8 H         141.7922  136.2410  162.5465 H       1  UNL1        0.1235
      9 C         141.1217  137.1653  164.2406 C.3     1  UNL1        0.0972
     10 C         141.0228  138.4986  164.9205 C.ar    1  UNL1        0.0135
     11 C         142.0327  138.8877  165.9591 C.ar    1  UNL1        0.0955
     12 N         141.9337  140.2210  166.6390 N.ar    1  UNL1       -0.2477
     13 C         140.8248  141.1654  166.2803 C.ar    1  UNL1        0.0689
     14 C         140.7259  142.4988  166.9602 C.3     1  UNL1        0.0528
     15 C         139.8149  140.7764  165.2417 C.ar    1  UNL1        0.0817
     16 C         139.9139  139.4429  164.5617 C.ar    1  UNL1        0.0101
     17 C         138.7061  141.7207  164.8829 C.1     1  UNL1        0.1016
     18 N         137.5972  142.6650  164.5242 N.1     1  UNL1       -0.1908
     19 C         143.9869  141.5442  159.7834 C.3     1  UNL1        0.0970
     20 C         144.5403  142.7182  160.5354 C.3     1  UNL1        0.1279
     21 C         140.7891  145.1132  161.2006 C.ar    1  UNL1        0.2264
     22 C         140.3193  145.3990  162.5961 C.ar    1  UNL1        0.0594
     23 C         141.1000  144.8865  163.7700 C.ar    1  UNL1        0.0270
     24 C         142.3504  144.0882  163.5483 C.ar    1  UNL1        0.1158
     25 N         143.1310  143.5757  164.7221 N.ar    1  UNL1       -0.2358
     26 C         144.3814  142.7774  164.5004 C.ar    1  UNL1        0.1595
     27 C         144.8512  142.4915  163.1048 C.ar    1  UNL1        0.2813
     28 O         146.1015  141.6932  162.8831 O.2     1  UNL1       -0.2652
     29 N         144.0705  143.0040  161.9309 N.ar    1  UNL1       -0.2766
     30 C         142.8201  143.8024  162.1527 C.ar    1  UNL1        0.1670
     31 N         142.0394  144.3149  160.9789 N.ar    1  UNL1       -0.1926
     32 C         140.5314  145.4291  158.6347 C.3     1  UNL1        0.2542
     33 O         140.0084  145.6257  160.0267 O.3     1  UNL1       -0.4561
@<TRIPOS>BOND
     1    32    33    1
     2    33    21    1
     3    21    22   ar
     4    22    23   ar
     5    23    24   ar
     6    24    25   ar
     7    25    26   ar
     8    26    27   ar
     9    27    28    2
    10    27    29   ar
    11    29    20    1
    12    20    19    1
    13    19     1    1
    14     1     2    1
    15     2     3    1
    16     3     4    1
    17     4     7    1
    18     7     9    1
    19     9    10    1
    20    10    11   ar
    21    11    12   ar
    22    12    13   ar
    23    13    14    1
    24    13    15   ar
    25    15    17    1
    26    17    18    3
    27    15    16   ar
    28     4     5    1
    29     5     6    1
    30    29    30   ar
    31    30    31   ar
    32    31    21   ar
    33    30    24   ar
    34     6     1    1
    35    16    10   ar
    36     7     8    1
@<TRIPOS>MOLECULE
*****
 33 36 0 0 0
SMALL
GASTEIGER

@<TRIPOS>ATOM
      1 N         142.5189  143.0572  163.4125 N.3     1  UNL1       -0.2710
      2 C         142.7380  142.8784  161.9394 C.3     1  UNL1        0.0735
      3 C         143.4194  141.6443  161.4269 C.3     1  UNL1        0.0331
      4 C         143.8816  140.5890  162.3874 C.3     1  UNL1        0.0570
      5 C         143.6624  140.7679  163.8605 C.3     1  UNL1        0.0331
      6 C         142.9811  142.0020  164.3730 C.3     1  UNL1        0.0735
      7 N         144.5630  139.3548  161.8750 N.3     1  UNL1       -0.2947
      8 H         145.3719  139.1944  162.4751 H       1  UNL1        0.1235
      9 C         143.8122  138.0582  161.8042 C.3     1  UNL1        0.0972
     10 C         142.3124  138.0600  161.7862 C.ar    1  UNL1        0.0135
     11 C         141.5474  137.5577  162.9747 C.ar    1  UNL1        0.0955
     12 N         140.0475  137.5595  162.9566 N.ar    1  UNL1       -0.2477
     13 C         139.3126  138.0636  161.7499 C.ar    1  UNL1        0.0689
     14 C         137.8127  138.0654  161.7319 C.3     1  UNL1        0.0528
     15 C         140.0776  138.5658  160.5614 C.ar    1  UNL1        0.0817
     16 C         141.5775  138.5640  160.5796 C.ar    1  UNL1        0.0101
     17 C         139.3427  139.0698  159.3549 C.1     1  UNL1        0.1016
     18 N         138.6078  139.5739  158.1482 N.1     1  UNL1       -0.1908
     19 C         141.8375  144.2914  163.9250 C.3     1  UNL1        0.0970
     20 C         140.5091  144.1837  164.6132 C.3     1  UNL1        0.1279
     21 C         139.8626  140.4812  167.0877 C.ar    1  UNL1        0.2264
     22 C         138.8702  139.4472  166.6451 C.ar    1  UNL1        0.0594
     23 C         138.0933  139.6473  165.3777 C.ar    1  UNL1        0.0270
     24 C         138.3088  140.8815  164.5528 C.ar    1  UNL1        0.1158
     25 N         137.5319  141.0816  163.2854 N.ar    1  UNL1       -0.2358
     26 C         137.7474  142.3157  162.4606 C.ar    1  UNL1        0.1595
     27 C         138.7398  143.3498  162.9032 C.ar    1  UNL1        0.2813
     28 O         138.9553  144.5840  162.0784 O.2     1  UNL1       -0.2652
     29 N         139.5167  143.1497  164.1706 N.ar    1  UNL1       -0.2766
     30 C         139.3012  141.9155  164.9955 C.ar    1  UNL1        0.1670
     31 N         140.0781  141.7153  166.2629 N.ar    1  UNL1       -0.1926
     32 C         139.9275  140.2552  169.6751 C.3     1  UNL1        0.2542
     33 O         140.6395  140.2810  168.3552 O.3     1  UNL1       -0.4561
@<TRIPOS>BOND
     1    32    33    1
     2    33    21    1
     3    21    22   ar
     4    22    23   ar
     5    23    24   ar
     6    24    25   ar
     7    25    26   ar
     8    26    27   ar
     9    27    28    2
    10    27    29   ar
    11    29    20    1
    12    20    19    1
    13    19     1    1
    14     1     2    1
    15     2     3    1
    16     3     4    1
    17     4     7    1
    18     7     9    1
    19     9    10    1
    20    10    11   ar
    21    11    12   ar
    22    12    13   ar
    23    13    14    1
    24    13    15   ar
    25    15    17    1
    26    17    18    3
    27    15    16   ar
    28     4     5    1
    29     5     6    1
    30    29    30   ar
    31    30    31   ar
    32    31    21   ar
    33    30    24   ar
    34     6     1    1
    35    16    10   ar
    36     7     8    1
@<TRIPOS>MOLECULE
*****
 33 36 0 0 0
SMALL
GASTEIGER

@<TRIPOS>ATOM
      1 N         137.9351  142.8288  162.9805 N.3     1  UNL1       -0.2710
      2 C         137.8473  141.8991  164.1544 C.3     1  UNL1        0.0735
      3 C         137.8702  140.4148  163.9389 C.3     1  UNL1        0.0331
      4 C         137.9809  139.8603  162.5496 C.3     1  UNL1        0.0570
      5 C         138.0687  140.7900  161.3758 C.3     1  UNL1        0.0331
      6 C         138.0458  142.2742  161.5912 C.3     1  UNL1        0.0735
      7 N         138.0038  138.3760  162.3341 N.3     1  UNL1       -0.2947
      8 H         138.2411  138.2244  161.3538 H       1  UNL1        0.1235
      9 C         138.9292  137.5151  163.1418 C.3     1  UNL1        0.0972
     10 C         140.3496  137.9432  163.3636 C.ar    1  UNL1        0.0135
     11 C         140.8788  138.0924  164.7591 C.ar    1  UNL1        0.0955
     12 N         142.2992  138.5206  164.9809 N.ar    1  UNL1       -0.2477
     13 C         143.1904  138.7995  163.8070 C.ar    1  UNL1        0.0689
     14 C         144.6108  139.2277  164.0287 C.3     1  UNL1        0.0528
     15 C         142.6612  138.6503  162.4114 C.ar    1  UNL1        0.0817
     16 C         141.2408  138.2221  162.1897 C.ar    1  UNL1        0.0101
     17 C         143.5524  138.9292  161.2375 C.1     1  UNL1        0.1016
     18 N         144.4436  139.2081  160.0636 N.1     1  UNL1       -0.1908
     19 C         137.9122  144.3131  163.1960 C.3     1  UNL1        0.0970
     20 C         139.0626  144.9893  163.8811 C.3     1  UNL1        0.1279
     21 C         141.0785  142.4967  167.0391 C.ar    1  UNL1        0.2264
     22 C         142.4773  142.0000  166.8228 C.ar    1  UNL1        0.0594
     23 C         143.2040  142.3341  165.5539 C.ar    1  UNL1        0.0270
     24 C         142.5321  143.1650  164.5013 C.ar    1  UNL1        0.1158
     25 N         143.2588  143.4991  163.2323 N.ar    1  UNL1       -0.2358
     26 C         142.5869  144.3300  162.1797 C.ar    1  UNL1        0.1595
     27 C         141.1881  144.8267  162.3959 C.ar    1  UNL1        0.2813
     28 O         140.5161  145.6576  161.3433 O.2     1  UNL1       -0.2652
     29 N         140.4613  144.4926  163.6648 N.ar    1  UNL1       -0.2766
     30 C         141.1333  143.6617  164.7175 C.ar    1  UNL1        0.1670
     31 N         140.4066  143.3275  165.9864 N.ar    1  UNL1       -0.1926
     32 C         140.8674  142.6676  169.6229 C.3     1  UNL1        0.2542
     33 O         140.3518  142.1625  168.3080 O.3     1  UNL1       -0.4561
@<TRIPOS>BOND
     1    32    33    1
     2    33    21    1
     3    21    22   ar
     4    22    23   ar
     5    23    24   ar
     6    24    25   ar
     7    25    26   ar
     8    26    27   ar
     9    27    28    2
    10    27    29   ar
    11    29    20    1
    12    20    19    1
    13    19     1    1
    14     1     2    1
    15     2     3    1
    16     3     4    1
    17     4     7    1
    18     7     9    1
    19     9    10    1
    20    10    11   ar
    21    11    12   ar
    22    12    13   ar
    23    13    14    1
    24    13    15   ar
    25    15    17    1
    26    17    18    3
    27    15    16   ar
    28     4     5    1
    29     5     6    1
    30    29    30   ar
    31    30    31   ar
    32    31    21   ar
    33    30    24   ar
    34     6     1    1
    35    16    10   ar
    36     7     8    1
