@<TRIPOS>MOLECULE
*****
 35 38 0 0 0
SMALL
GASTEIGER

@<TRIPOS>ATOM
      1 C         139.1649  141.7755  163.7877 C.ar    1  UNL1        0.0154
      2 C         137.8405  142.2712  163.2874 C.ar    1  UNL1        0.0985
      3 N         137.6941  142.7093  161.8603 N.ar    1  UNL1       -0.2423
      4 C         138.8722  142.6516  160.9334 C.ar    1  UNL1        0.0985
      5 C         140.1966  142.1559  161.4337 C.ar    1  UNL1        0.0152
      6 C         140.3429  141.7178  162.8609 C.ar    1  UNL1       -0.0188
      7 C         141.6673  141.2221  163.3612 C.3     1  UNL1        0.0311
      8 C         138.7507  139.6675  167.1245 C.ar    1  UNL1        0.1754
      9 C         138.6044  140.1056  165.6975 C.ar    1  UNL1        0.0403
     10 C         139.3112  141.3374  165.2148 C.ar    1  UNL1        0.0074
     11 C         140.1644  142.1311  166.1593 C.ar    1  UNL1        0.0403
     12 C         140.3107  141.6930  167.5864 C.ar    1  UNL1        0.1754
     13 C         139.6038  140.4612  168.0690 C.ar    1  UNL1        0.2061
     14 C         137.6622  137.3600  166.6339 C.3     1  UNL1        0.2526
     15 O         138.0438  138.4356  167.6072 O.3     1  UNL1       -0.4683
     16 O         141.1639  142.4868  168.5309 O.3     1  UNL1       -0.4683
     17 C         140.5278  143.4594  169.4793 C.3     1  UNL1        0.2526
     18 O         139.7502  140.0231  169.4962 O.3     1  UNL1       -0.4654
     19 C         141.0885  139.5848  170.0127 C.3     1  UNL1        0.2528
     20 C         141.3745  142.0983  160.5069 C.ar    1  UNL1        0.0013
     21 C         141.7159  140.8164  159.8068 C.ar    1  UNL1        0.0013
     22 C         142.8940  140.7587  158.8799 C.ar    1  UNL1        0.0145
     23 C         143.7306  141.9830  158.6533 C.ar    1  UNL1        0.0479
     24 C         143.3892  143.2649  159.3535 C.ar    1  UNL1        0.0145
     25 C         142.2112  143.3225  160.2803 C.ar    1  UNL1        0.0013
     26 N         144.9086  141.9253  157.7266 N.pl3   1  UNL1       -0.3045
     27 C         144.9075  140.9692  156.5708 C.3     1  UNL1        0.1099
     28 C         146.0855  140.9115  155.6440 C.3     1  UNL1        0.1168
     29 N         147.2646  141.8100  155.8729 N.3     1  UNL1       -0.1559
     30 C         147.2657  142.7662  157.0287 C.3     1  UNL1        0.1168
     31 C         146.0877  142.8238  157.9555 C.3     1  UNL1        0.1099
     32 S         148.4426  141.7524  154.9462 S.O2    1  UNL1        0.0458
     33 C         149.6207  141.6947  154.0194 C.3     1  UNL1        0.1960
     34 O         147.5142  141.7047  153.7690 O.2     1  UNL1       -0.1572
     35 O         149.3710  141.8000  156.1233 O.2     1  UNL1       -0.1572
@<TRIPOS>BOND
     1    14    15    1
     2    15     8    1
     3     8     9   ar
     4     9    10   ar
     5    10     1    1
     6     1     2   ar
     7     2     3   ar
     8     3     4   ar
     9     4     5   ar
    10     5    20    1
    11    20    21   ar
    12    21    22   ar
    13    22    23   ar
    14    23    26    1
    15    26    27    1
    16    27    28    1
    17    28    29    1
    18    29    32    1
    19    32    33    1
    20    32    34    2
    21    32    35    2
    22    29    30    1
    23    30    31    1
    24    23    24   ar
    25    24    25   ar
    26     5     6   ar
    27     6     7    1
    28    10    11   ar
    29    11    12   ar
    30    12    16    1
    31    16    17    1
    32    12    13   ar
    33    13    18    1
    34    18    19    1
    35    13     8   ar
    36     6     1   ar
    37    25    20   ar
    38    31    26    1
@<TRIPOS>MOLECULE
*****
 35 38 0 0 0
SMALL
GASTEIGER

@<TRIPOS>ATOM
      1 C         139.1434  141.7606  163.7936 C.ar    1  UNL1        0.0154
      2 C         137.8206  142.2648  163.2978 C.ar    1  UNL1        0.0985
      3 N         137.6742  142.7111  161.8733 N.ar    1  UNL1       -0.2423
      4 C         138.8506  142.6532  160.9445 C.ar    1  UNL1        0.0985
      5 C         140.1735  142.1490  161.4403 C.ar    1  UNL1        0.0152
      6 C         140.3199  141.7027  162.8649 C.ar    1  UNL1       -0.0188
      7 C         141.6427  141.1985  163.3607 C.3     1  UNL1        0.0311
      8 C         140.3049  141.6455  167.5868 C.ar    1  UNL1        0.1754
      9 C         140.1585  142.0917  166.1622 C.ar    1  UNL1        0.0403
     10 C         139.2898  141.3144  165.2183 C.ar    1  UNL1        0.0074
     11 C         138.5676  140.0907  165.6989 C.ar    1  UNL1        0.0403
     12 C         138.7140  139.6445  167.1234 C.ar    1  UNL1        0.1754
     13 C         139.5827  140.4219  168.0674 C.ar    1  UNL1        0.2061
     14 C         140.5529  143.3741  169.5104 C.3     1  UNL1        0.2526
     15 O         141.1736  142.4229  168.5307 O.3     1  UNL1       -0.4683
     16 O         137.9917  138.4208  167.6041 O.3     1  UNL1       -0.4683
     17 C         137.6606  137.3189  166.6418 C.3     1  UNL1        0.2526
     18 O         139.7291  139.9756  169.4920 O.3     1  UNL1       -0.4654
     19 C         141.0814  139.6100  170.0282 C.3     1  UNL1        0.2528
     20 C         141.3499  142.0910  160.5115 C.ar    1  UNL1        0.0013
     21 C         142.3139  143.2385  160.4499 C.ar    1  UNL1        0.0013
     22 C         143.4905  143.1806  159.5211 C.ar    1  UNL1        0.0145
     23 C         143.7028  141.9752  158.6540 C.ar    1  UNL1        0.0479
     24 C         142.7387  140.8277  158.7157 C.ar    1  UNL1        0.0145
     25 C         141.5623  140.8856  159.6445 C.ar    1  UNL1        0.0013
     26 N         144.8793  141.9173  157.7253 N.pl3   1  UNL1       -0.3045
     27 C         146.0360  142.8519  157.9209 C.3     1  UNL1        0.1099
     28 C         147.2125  142.7940  156.9922 C.3     1  UNL1        0.1168
     29 N         147.2322  141.8014  155.8677 N.3     1  UNL1       -0.1559
     30 C         146.0754  140.8667  155.6721 C.3     1  UNL1        0.1168
     31 C         144.8990  140.9246  156.6008 C.3     1  UNL1        0.1099
     32 S         148.4087  141.7435  154.9390 S.O2    1  UNL1        0.0458
     33 C         149.5852  141.6855  154.0102 C.3     1  UNL1        0.1960
     34 O         147.4784  141.7099  153.7628 O.2     1  UNL1       -0.1572
     35 O         149.3389  141.7770  156.1152 O.2     1  UNL1       -0.1572
@<TRIPOS>BOND
     1    14    15    1
     2    15     8    1
     3     8     9   ar
     4     9    10   ar
     5    10     1    1
     6     1     2   ar
     7     2     3   ar
     8     3     4   ar
     9     4     5   ar
    10     5    20    1
    11    20    21   ar
    12    21    22   ar
    13    22    23   ar
    14    23    26    1
    15    26    27    1
    16    27    28    1
    17    28    29    1
    18    29    32    1
    19    32    33    1
    20    32    34    2
    21    32    35    2
    22    29    30    1
    23    30    31    1
    24    23    24   ar
    25    24    25   ar
    26     5     6   ar
    27     6     7    1
    28    10    11   ar
    29    11    12   ar
    30    12    16    1
    31    16    17    1
    32    12    13   ar
    33    13    18    1
    34    18    19    1
    35    13     8   ar
    36     6     1   ar
    37    25    20   ar
    38    31    26    1
@<TRIPOS>MOLECULE
*****
 35 38 0 0 0
SMALL
GASTEIGER

@<TRIPOS>ATOM
      1 C         141.3255  141.5468  164.3884 C.ar    1  UNL1        0.0154
      2 C         141.4455  143.0203  164.1345 C.ar    1  UNL1        0.0985
      3 N         141.6020  143.5294  162.7322 N.ar    1  UNL1       -0.2423
      4 C         141.6386  142.5650  161.5839 C.ar    1  UNL1        0.0985
      5 C         141.5186  141.0915  161.8378 C.ar    1  UNL1        0.0152
      6 C         141.3621  140.5824  163.2401 C.ar    1  UNL1       -0.0188
      7 C         141.2421  139.1090  163.4940 C.3     1  UNL1        0.0311
      8 C         142.1514  140.6400  168.1627 C.ar    1  UNL1        0.1754
      9 C         142.3079  141.1490  166.7605 C.ar    1  UNL1        0.0403
     10 C         141.1690  141.0377  165.7907 C.ar    1  UNL1        0.0074
     11 C         139.8736  140.4173  166.2231 C.ar    1  UNL1        0.0403
     12 C         139.7171  139.9083  167.6254 C.ar    1  UNL1        0.1754
     13 C         140.8560  140.0196  168.5952 C.ar    1  UNL1        0.2061
     14 C         143.5939  142.0674  169.7850 C.3     1  UNL1        0.2526
     15 O         143.2903  140.7513  169.1325 O.3     1  UNL1       -0.4683
     16 O         138.4217  139.2879  168.0579 O.3     1  UNL1       -0.4683
     17 C         137.6018  138.5028  167.0774 C.3     1  UNL1        0.2526
     18 O         140.6995  139.5105  169.9975 O.3     1  UNL1       -0.4654
     19 C         140.4057  140.4677  171.1144 C.3     1  UNL1        0.2528
     20 C         141.5552  140.1271  160.6895 C.ar    1  UNL1        0.0013
     21 C         142.8628  139.5460  160.2395 C.ar    1  UNL1        0.0013
     22 C         142.8994  138.5816  159.0912 C.ar    1  UNL1        0.0145
     23 C         141.6284  138.1984  158.3929 C.ar    1  UNL1        0.0479
     24 C         140.3208  138.7796  158.8429 C.ar    1  UNL1        0.0145
     25 C         140.2842  139.7439  159.9912 C.ar    1  UNL1        0.0013
     26 N         141.6649  137.2340  157.2446 N.pl3   1  UNL1       -0.3045
     27 C         140.4989  137.1414  156.3056 C.3     1  UNL1        0.1099
     28 C         140.5354  136.1770  155.1572 C.3     1  UNL1        0.1168
     29 N         141.7380  135.3052  154.9479 N.3     1  UNL1       -0.1559
     30 C         142.9041  135.3979  155.8870 C.3     1  UNL1        0.1168
     31 C         142.8675  136.3622  157.0353 C.3     1  UNL1        0.1099
     32 S         141.7746  134.3409  153.7996 S.O2    1  UNL1        0.0458
     33 C         141.8111  133.3764  152.6513 C.3     1  UNL1        0.1960
     34 O         141.9699  135.4828  152.8468 O.2     1  UNL1       -0.1572
     35 O         141.5792  133.1989  154.7524 O.2     1  UNL1       -0.1572
@<TRIPOS>BOND
     1    14    15    1
     2    15     8    1
     3     8     9   ar
     4     9    10   ar
     5    10     1    1
     6     1     2   ar
     7     2     3   ar
     8     3     4   ar
     9     4     5   ar
    10     5    20    1
    11    20    21   ar
    12    21    22   ar
    13    22    23   ar
    14    23    26    1
    15    26    27    1
    16    27    28    1
    17    28    29    1
    18    29    32    1
    19    32    33    1
    20    32    34    2
    21    32    35    2
    22    29    30    1
    23    30    31    1
    24    23    24   ar
    25    24    25   ar
    26     5     6   ar
    27     6     7    1
    28    10    11   ar
    29    11    12   ar
    30    12    16    1
    31    16    17    1
    32    12    13   ar
    33    13    18    1
    34    18    19    1
    35    13     8   ar
    36     6     1   ar
    37    25    20   ar
    38    31    26    1
@<TRIPOS>MOLECULE
*****
 35 38 0 0 0
SMALL
GASTEIGER

@<TRIPOS>ATOM
      1 C         141.3314  141.5537  164.4112 C.ar    1  UNL1        0.0154
      2 C         141.4605  143.0271  164.1610 C.ar    1  UNL1        0.0985
      3 N         141.6219  143.5387  162.7603 N.ar    1  UNL1       -0.2423
      4 C         141.6541  142.5769  161.6096 C.ar    1  UNL1        0.0985
      5 C         141.5250  141.1036  161.8597 C.ar    1  UNL1        0.0152
      6 C         141.3636  140.5920  163.2606 C.ar    1  UNL1       -0.0188
      7 C         141.2345  139.1186  163.5107 C.3     1  UNL1        0.0311
      8 C         139.7148  139.9011  167.6370 C.ar    1  UNL1        0.1754
      9 C         139.8762  140.4127  166.2362 C.ar    1  UNL1        0.0403
     10 C         141.1700  141.0421  165.8121 C.ar    1  UNL1        0.0074
     11 C         142.3024  141.1600  166.7886 C.ar    1  UNL1        0.0403
     12 C         142.1410  140.6484  168.1894 C.ar    1  UNL1        0.1754
     13 C         140.8472  140.0190  168.6136 C.ar    1  UNL1        0.2061
     14 C         137.6129  138.4812  167.0754 C.3     1  UNL1        0.2526
     15 O         138.4210  139.2717  168.0612 O.3     1  UNL1       -0.4683
     16 O         143.2734  140.7662  169.1661 O.3     1  UNL1       -0.4683
     17 C         143.6008  142.0960  169.7779 C.3     1  UNL1        0.2526
     18 O         140.6859  139.5074  170.0144 O.3     1  UNL1       -0.4654
     19 C         140.4164  140.4658  171.1365 C.3     1  UNL1        0.2528
     20 C         141.5572  140.1418  160.7091 C.ar    1  UNL1        0.0013
     21 C         142.8596  139.5409  160.2702 C.ar    1  UNL1        0.0013
     22 C         142.8919  138.5791  159.1195 C.ar    1  UNL1        0.0145
     23 C         141.6218  138.2183  158.4078 C.ar    1  UNL1        0.0479
     24 C         140.3194  138.8192  158.8468 C.ar    1  UNL1        0.0145
     25 C         140.2871  139.7809  159.9974 C.ar    1  UNL1        0.0013
     26 N         141.6540  137.2565  157.2572 N.pl3   1  UNL1       -0.3045
     27 C         142.8491  136.3739  157.0508 C.3     1  UNL1        0.1099
     28 C         142.8814  135.4121  155.9001 C.3     1  UNL1        0.1168
     29 N         141.7186  135.3329  154.9559 N.3     1  UNL1       -0.1559
     30 C         140.5234  136.2156  155.1624 C.3     1  UNL1        0.1168
     31 C         140.4912  137.1774  156.3130 C.3     1  UNL1        0.1099
     32 S         141.7508  134.3712  153.8053 S.O2    1  UNL1        0.0458
     33 C         141.7831  133.4094  152.6547 C.3     1  UNL1        0.1960
     34 O         141.9883  135.5108  152.8594 O.2     1  UNL1       -0.1572
     35 O         141.5133  133.2316  154.7513 O.2     1  UNL1       -0.1572
@<TRIPOS>BOND
     1    14    15    1
     2    15     8    1
     3     8     9   ar
     4     9    10   ar
     5    10     1    1
     6     1     2   ar
     7     2     3   ar
     8     3     4   ar
     9     4     5   ar
    10     5    20    1
    11    20    21   ar
    12    21    22   ar
    13    22    23   ar
    14    23    26    1
    15    26    27    1
    16    27    28    1
    17    28    29    1
    18    29    32    1
    19    32    33    1
    20    32    34    2
    21    32    35    2
    22    29    30    1
    23    30    31    1
    24    23    24   ar
    25    24    25   ar
    26     5     6   ar
    27     6     7    1
    28    10    11   ar
    29    11    12   ar
    30    12    16    1
    31    16    17    1
    32    12    13   ar
    33    13    18    1
    34    18    19    1
    35    13     8   ar
    36     6     1   ar
    37    25    20   ar
    38    31    26    1
@<TRIPOS>MOLECULE
*****
 35 38 0 0 0
SMALL
GASTEIGER

@<TRIPOS>ATOM
      1 C         139.4863  139.1732  165.5804 C.ar    1  UNL1        0.0154
      2 C         139.1096  137.7535  165.2760 C.ar    1  UNL1        0.0985
      3 N         138.8278  137.3390  163.8623 N.ar    1  UNL1       -0.2423
      4 C         138.9226  138.3441  162.7529 C.ar    1  UNL1        0.0985
      5 C         139.2993  139.7638  163.0573 C.ar    1  UNL1        0.0152
      6 C         139.5811  140.1783  164.4711 C.ar    1  UNL1       -0.0188
      7 C         139.9577  141.5980  164.7755 C.3     1  UNL1        0.0311
      8 C         138.9254  140.1174  169.3941 C.ar    1  UNL1        0.1754
      9 C         138.6436  139.7029  167.9803 C.ar    1  UNL1        0.0403
     10 C         139.7681  139.5877  166.9943 C.ar    1  UNL1        0.0074
     11 C         141.1743  139.8871  167.4219 C.ar    1  UNL1        0.0403
     12 C         141.4560  140.3016  168.8357 C.ar    1  UNL1        0.1754
     13 C         140.3316  140.4168  169.8218 C.ar    1  UNL1        0.2061
     14 C         137.0151  139.0149  170.7672 C.3     1  UNL1        0.2526
     15 O         137.8009  140.2325  170.3802 O.3     1  UNL1       -0.4683
     16 O         142.8623  140.6010  169.2634 O.3     1  UNL1       -0.4683
     17 C         143.4023  141.9951  169.1423 C.3     1  UNL1        0.2526
     18 O         140.6134  140.8313  171.2356 O.3     1  UNL1       -0.4654
     19 C         140.7698  142.2842  171.5741 C.3     1  UNL1        0.2528
     20 C         139.3941  140.7689  161.9479 C.ar    1  UNL1        0.0013
     21 C         138.1831  141.5563  161.5438 C.ar    1  UNL1        0.0013
     22 C         138.2778  142.5615  160.4344 C.ar    1  UNL1        0.0145
     23 C         139.5837  142.7792  159.7292 C.ar    1  UNL1        0.0479
     24 C         140.7948  141.9917  160.1333 C.ar    1  UNL1        0.0145
     25 C         140.6999  140.9866  161.2427 C.ar    1  UNL1        0.0013
     26 N         139.6785  143.7844  158.6198 N.pl3   1  UNL1       -0.3045
     27 C         140.3230  145.1160  158.8674 C.3     1  UNL1        0.1099
     28 C         140.4179  146.1212  157.7581 C.3     1  UNL1        0.1168
     29 N         139.8682  145.7947  156.4011 N.3     1  UNL1       -0.1559
     30 C         139.2236  144.4630  156.1536 C.3     1  UNL1        0.1168
     31 C         139.1288  143.4579  157.2629 C.3     1  UNL1        0.1099
     32 S         139.9630  146.7998  155.2918 S.O2    1  UNL1        0.0458
     33 C         140.0578  147.8050  154.1824 C.3     1  UNL1        0.1960
     34 O         141.0334  145.9772  154.6380 O.2     1  UNL1       -0.1572
     35 O         138.8926  147.6224  155.9456 O.2     1  UNL1       -0.1572
@<TRIPOS>BOND
     1    14    15    1
     2    15     8    1
     3     8     9   ar
     4     9    10   ar
     5    10     1    1
     6     1     2   ar
     7     2     3   ar
     8     3     4   ar
     9     4     5   ar
    10     5    20    1
    11    20    21   ar
    12    21    22   ar
    13    22    23   ar
    14    23    26    1
    15    26    27    1
    16    27    28    1
    17    28    29    1
    18    29    32    1
    19    32    33    1
    20    32    34    2
    21    32    35    2
    22    29    30    1
    23    30    31    1
    24    23    24   ar
    25    24    25   ar
    26     5     6   ar
    27     6     7    1
    28    10    11   ar
    29    11    12   ar
    30    12    16    1
    31    16    17    1
    32    12    13   ar
    33    13    18    1
    34    18    19    1
    35    13     8   ar
    36     6     1   ar
    37    25    20   ar
    38    31    26    1
@<TRIPOS>MOLECULE
*****
 35 38 0 0 0
SMALL
GASTEIGER

@<TRIPOS>ATOM
      1 C         139.6024  139.1793  165.5065 C.ar    1  UNL1        0.0154
      2 C         139.1923  137.7657  165.2169 C.ar    1  UNL1        0.0985
      3 N         138.8737  137.3502  163.8114 N.ar    1  UNL1       -0.2423
      4 C         138.9651  138.3481  162.6952 C.ar    1  UNL1        0.0985
      5 C         139.3751  139.7617  162.9847 C.ar    1  UNL1        0.0152
      6 C         139.6938  140.1772  164.3904 C.ar    1  UNL1       -0.0188
      7 C         140.1038  141.5907  164.6799 C.3     1  UNL1        0.0311
      8 C         141.6618  140.2678  168.7196 C.ar    1  UNL1        0.1754
      9 C         141.3431  139.8522  167.3140 C.ar    1  UNL1        0.0403
     10 C         139.9210  139.5948  166.9121 C.ar    1  UNL1        0.0074
     11 C         138.8176  139.7529  167.9159 C.ar    1  UNL1        0.0403
     12 C         139.1363  140.1685  169.3214 C.ar    1  UNL1        0.1754
     13 C         140.5584  140.4259  169.7233 C.ar    1  UNL1        0.2061
     14 C         143.5816  141.9336  169.2574 C.3     1  UNL1        0.2526
     15 O         143.0838  140.5252  169.1215 O.3     1  UNL1       -0.4683
     16 O         138.0329  140.3266  170.3253 O.3     1  UNL1       -0.4683
     17 C         137.1122  139.1784  170.6148 C.3     1  UNL1        0.2526
     18 O         140.8770  140.8414  171.1290 O.3     1  UNL1       -0.4654
     19 C         140.7740  142.2842  171.5262 C.3     1  UNL1        0.2528
     20 C         139.4665  140.7596  161.8686 C.ar    1  UNL1        0.0013
     21 C         140.7373  140.8915  161.0827 C.ar    1  UNL1        0.0013
     22 C         140.8287  141.8895  159.9665 C.ar    1  UNL1        0.0145
     23 C         139.6493  142.7556  159.6364 C.ar    1  UNL1        0.0479
     24 C         138.3785  142.6237  160.4224 C.ar    1  UNL1        0.0145
     25 C         138.2872  141.6257  161.5385 C.ar    1  UNL1        0.0013
     26 N         139.7407  143.7535  158.5203 N.pl3   1  UNL1       -0.3045
     27 C         139.3473  143.3592  157.1276 C.3     1  UNL1        0.1099
     28 C         139.4387  144.3572  156.0114 C.3     1  UNL1        0.1168
     29 N         139.9235  145.7495  156.2880 N.3     1  UNL1       -0.1559
     30 C         140.3169  146.1438  157.6808 C.3     1  UNL1        0.1168
     31 C         140.2255  145.1458  158.7969 C.3     1  UNL1        0.1099
     32 S         140.0149  146.7474  155.1720 S.O2    1  UNL1        0.0458
     33 C         140.1063  147.7454  154.0558 C.3     1  UNL1        0.1960
     34 O         139.1454  147.6930  155.9463 O.2     1  UNL1       -0.1572
     35 O         140.8844  145.8018  154.3976 O.2     1  UNL1       -0.1572
@<TRIPOS>BOND
     1    14    15    1
     2    15     8    1
     3     8     9   ar
     4     9    10   ar
     5    10     1    1
     6     1     2   ar
     7     2     3   ar
     8     3     4   ar
     9     4     5   ar
    10     5    20    1
    11    20    21   ar
    12    21    22   ar
    13    22    23   ar
    14    23    26    1
    15    26    27    1
    16    27    28    1
    17    28    29    1
    18    29    32    1
    19    32    33    1
    20    32    34    2
    21    32    35    2
    22    29    30    1
    23    30    31    1
    24    23    24   ar
    25    24    25   ar
    26     5     6   ar
    27     6     7    1
    28    10    11   ar
    29    11    12   ar
    30    12    16    1
    31    16    17    1
    32    12    13   ar
    33    13    18    1
    34    18    19    1
    35    13     8   ar
    36     6     1   ar
    37    25    20   ar
    38    31    26    1
@<TRIPOS>MOLECULE
*****
 35 38 0 0 0
SMALL
GASTEIGER

@<TRIPOS>ATOM
      1 C         142.1295  139.5867  164.1748 C.ar    1  UNL1        0.0154
      2 C         142.9001  138.3559  163.7988 C.ar    1  UNL1        0.0985
      3 N         143.3645  138.1645  162.3854 N.ar    1  UNL1       -0.2423
      4 C         143.0584  139.2038  161.3480 C.ar    1  UNL1        0.0985
      5 C         142.2878  140.4346  161.7241 C.ar    1  UNL1        0.0152
      6 C         141.8234  140.6260  163.1375 C.ar    1  UNL1       -0.0188
      7 C         141.0528  141.8568  163.5136 C.3     1  UNL1        0.0311
      8 C         139.7893  139.6299  167.3797 C.ar    1  UNL1        0.1754
      9 C         140.2538  139.4386  165.9664 C.ar    1  UNL1        0.0403
     10 C         141.6650  139.7781  165.5882 C.ar    1  UNL1        0.0074
     11 C         142.6119  140.3090  166.6234 C.ar    1  UNL1        0.0403
     12 C         142.1474  140.5003  168.0368 C.ar    1  UNL1        0.1754
     13 C         140.7361  140.1608  168.4149 C.ar    1  UNL1        0.2061
     14 C         137.6022  138.2966  166.9453 C.3     1  UNL1        0.2526
     15 O         138.3780  139.2904  167.7579 O.3     1  UNL1       -0.4683
     16 O         143.0942  141.0312  169.0720 O.3     1  UNL1       -0.4683
     17 C         143.2207  142.5107  169.2843 C.3     1  UNL1        0.2526
     18 O         140.2717  140.3522  169.8284 O.3     1  UNL1       -0.4654
     19 C         139.6795  141.6636  170.2521 C.3     1  UNL1        0.2528
     20 C         141.9817  141.4739  160.6868 C.ar    1  UNL1        0.0013
     21 C         142.9636  142.5749  160.4156 C.ar    1  UNL1        0.0013
     22 C         142.6575  143.6143  159.3783 C.ar    1  UNL1        0.0145
     23 C         141.3694  143.5527  158.6121 C.ar    1  UNL1        0.0479
     24 C         140.3874  142.4516  158.8833 C.ar    1  UNL1        0.0145
     25 C         140.6936  141.4123  159.9206 C.ar    1  UNL1        0.0013
     26 N         141.0633  144.5920  157.5748 N.pl3   1  UNL1       -0.3045
     27 C         141.6904  144.5021  156.2152 C.3     1  UNL1        0.1099
     28 C         141.3842  145.5415  155.1779 C.3     1  UNL1        0.1168
     29 N         140.4510  146.6707  155.5002 N.3     1  UNL1       -0.1559
     30 C         139.8239  146.7605  156.8599 C.3     1  UNL1        0.1168
     31 C         140.1300  145.7212  157.8972 C.3     1  UNL1        0.1099
     32 S         140.1448  147.7100  154.4629 S.O2    1  UNL1        0.0458
     33 C         139.8387  148.7494  153.4255 C.3     1  UNL1        0.1960
     34 O         139.2228  148.3986  155.4250 O.2     1  UNL1       -0.1572
     35 O         141.0668  147.0214  153.5008 O.2     1  UNL1       -0.1572
@<TRIPOS>BOND
     1    14    15    1
     2    15     8    1
     3     8     9   ar
     4     9    10   ar
     5    10     1    1
     6     1     2   ar
     7     2     3   ar
     8     3     4   ar
     9     4     5   ar
    10     5    20    1
    11    20    21   ar
    12    21    22   ar
    13    22    23   ar
    14    23    26    1
    15    26    27    1
    16    27    28    1
    17    28    29    1
    18    29    32    1
    19    32    33    1
    20    32    34    2
    21    32    35    2
    22    29    30    1
    23    30    31    1
    24    23    24   ar
    25    24    25   ar
    26     5     6   ar
    27     6     7    1
    28    10    11   ar
    29    11    12   ar
    30    12    16    1
    31    16    17    1
    32    12    13   ar
    33    13    18    1
    34    18    19    1
    35    13     8   ar
    36     6     1   ar
    37    25    20   ar
    38    31    26    1
@<TRIPOS>MOLECULE
*****
 35 38 0 0 0
SMALL
GASTEIGER

@<TRIPOS>ATOM
      1 C         142.1043  140.0843  164.3814 C.ar    1  UNL1        0.0154
      2 C         142.9564  138.8742  164.1370 C.ar    1  UNL1        0.0985
      3 N         143.5262  138.6213  162.7727 N.ar    1  UNL1       -0.2423
      4 C         143.2439  139.5784  161.6527 C.ar    1  UNL1        0.0985
      5 C         142.3918  140.7885  161.8971 C.ar    1  UNL1        0.0152
      6 C         141.8220  141.0414  163.2615 C.ar    1  UNL1       -0.0188
      7 C         140.9699  142.2515  163.5059 C.3     1  UNL1        0.0311
      8 C         141.6458  141.5489  168.0413 C.ar    1  UNL1        0.1754
      9 C         142.2155  141.2959  166.6770 C.ar    1  UNL1        0.0403
     10 C         141.5345  140.3372  165.7457 C.ar    1  UNL1        0.0074
     11 C         140.2838  139.6314  166.1788 C.ar    1  UNL1        0.0403
     12 C         139.7141  139.8844  167.5431 C.ar    1  UNL1        0.1754
     13 C         140.3951  140.8431  168.4744 C.ar    1  UNL1        0.2061
     14 C         143.6414  142.1422  169.5954 C.3     1  UNL1        0.2526
     15 O         142.3267  142.5076  168.9725 O.3     1  UNL1       -0.4683
     16 O         138.4633  139.1786  167.9763 O.3     1  UNL1       -0.4683
     17 C         137.6428  138.4232  166.9733 C.3     1  UNL1        0.2526
     18 O         139.8253  141.0960  169.8387 O.3     1  UNL1       -0.4654
     19 C         140.3323  140.3210  171.0187 C.3     1  UNL1        0.2528
     20 C         142.1095  141.7456  160.7772 C.ar    1  UNL1        0.0013
     21 C         143.1877  142.6665  160.2880 C.ar    1  UNL1        0.0013
     22 C         142.9055  143.6236  159.1680 C.ar    1  UNL1        0.0145
     23 C         141.5450  143.6599  158.5374 C.ar    1  UNL1        0.0479
     24 C         140.4667  142.7389  159.0267 C.ar    1  UNL1        0.0145
     25 C         140.7490  141.7818  160.1465 C.ar    1  UNL1        0.0013
     26 N         141.2627  144.6170  157.4175 N.pl3   1  UNL1       -0.3045
     27 C         142.0257  144.5113  156.1304 C.3     1  UNL1        0.1099
     28 C         141.7434  145.4685  155.0104 C.3     1  UNL1        0.1168
     29 N         140.6981  146.5312  155.1776 N.3     1  UNL1       -0.1559
     30 C         139.9351  146.6368  156.4648 C.3     1  UNL1        0.1168
     31 C         140.2174  145.6797  157.5847 C.3     1  UNL1        0.1099
     32 S         140.4158  147.4883  154.0577 S.O2    1  UNL1        0.0458
     33 C         140.1335  148.4455  152.9378 C.3     1  UNL1        0.1960
     34 O         141.3235  146.7032  153.1579 O.2     1  UNL1       -0.1572
     35 O         139.5081  148.2734  154.9575 O.2     1  UNL1       -0.1572
@<TRIPOS>BOND
     1    14    15    1
     2    15     8    1
     3     8     9   ar
     4     9    10   ar
     5    10     1    1
     6     1     2   ar
     7     2     3   ar
     8     3     4   ar
     9     4     5   ar
    10     5    20    1
    11    20    21   ar
    12    21    22   ar
    13    22    23   ar
    14    23    26    1
    15    26    27    1
    16    27    28    1
    17    28    29    1
    18    29    32    1
    19    32    33    1
    20    32    34    2
    21    32    35    2
    22    29    30    1
    23    30    31    1
    24    23    24   ar
    25    24    25   ar
    26     5     6   ar
    27     6     7    1
    28    10    11   ar
    29    11    12   ar
    30    12    16    1
    31    16    17    1
    32    12    13   ar
    33    13    18    1
    34    18    19    1
    35    13     8   ar
    36     6     1   ar
    37    25    20   ar
    38    31    26    1
@<TRIPOS>MOLECULE
*****
 35 38 0 0 0
SMALL
GASTEIGER

@<TRIPOS>ATOM
      1 C         141.4098  142.4248  157.9542 C.ar    1  UNL1        0.0154
      2 C         141.4494  143.2672  156.7137 C.ar    1  UNL1        0.0985
      3 N         141.6025  142.6175  155.3704 N.ar    1  UNL1       -0.2423
      4 C         141.7161  141.1253  155.2676 C.ar    1  UNL1        0.0985
      5 C         141.6766  140.2829  156.5081 C.ar    1  UNL1        0.0152
      6 C         141.5234  140.9327  157.8514 C.ar    1  UNL1       -0.0188
      7 C         141.4838  140.0903  159.0919 C.3     1  UNL1        0.0311
      8 C         139.7370  143.9205  161.2275 C.ar    1  UNL1        0.1754
      9 C         139.8902  143.2708  159.8843 C.ar    1  UNL1        0.0403
     10 C         141.2566  143.0746  159.2975 C.ar    1  UNL1        0.0074
     11 C         142.4699  143.5282  160.0539 C.ar    1  UNL1        0.0403
     12 C         142.3167  144.1780  161.3971 C.ar    1  UNL1        0.1754
     13 C         140.9502  144.3741  161.9839 C.ar    1  UNL1        0.2061
     14 C         137.7248  143.0121  162.5971 C.3     1  UNL1        0.2526
     15 O         138.3705  144.1167  161.8143 O.3     1  UNL1       -0.4683
     16 O         143.5300  144.6316  162.1536 O.3     1  UNL1       -0.4683
     17 C         144.2398  143.6816  163.0720 C.3     1  UNL1        0.2526
     18 O         140.7971  145.0239  163.3272 O.3     1  UNL1       -0.4654
     19 C         140.6871  144.1783  164.5612 C.3     1  UNL1        0.2528
     20 C         141.7901  138.7907  156.4053 C.ar    1  UNL1        0.0013
     21 C         140.5705  137.9632  156.1269 C.ar    1  UNL1        0.0013
     22 C         140.6841  136.4710  156.0241 C.ar    1  UNL1        0.0145
     23 C         142.0173  135.8064  156.1998 C.ar    1  UNL1        0.0479
     24 C         143.2370  136.6341  156.4783 C.ar    1  UNL1        0.0145
     25 C         143.1234  138.1262  156.5811 C.ar    1  UNL1        0.0013
     26 N         142.1309  134.3143  156.0970 N.pl3   1  UNL1       -0.3045
     27 C         143.0729  133.5702  156.9964 C.3     1  UNL1        0.1099
     28 C         143.1865  132.0779  156.8937 C.3     1  UNL1        0.1168
     29 N         142.3581  131.3299  155.8916 N.3     1  UNL1       -0.1559
     30 C         141.4161  132.0741  154.9922 C.3     1  UNL1        0.1168
     31 C         141.3025  133.5663  155.0949 C.3     1  UNL1        0.1099
     32 S         142.4717  129.8378  155.7888 S.O2    1  UNL1        0.0458
     33 C         142.5853  128.3456  155.6860 C.3     1  UNL1        0.1960
     34 O         143.8383  129.8995  156.4041 O.2     1  UNL1       -0.1572
     35 O         141.1052  129.7762  155.1734 O.2     1  UNL1       -0.1572
@<TRIPOS>BOND
     1    14    15    1
     2    15     8    1
     3     8     9   ar
     4     9    10   ar
     5    10     1    1
     6     1     2   ar
     7     2     3   ar
     8     3     4   ar
     9     4     5   ar
    10     5    20    1
    11    20    21   ar
    12    21    22   ar
    13    22    23   ar
    14    23    26    1
    15    26    27    1
    16    27    28    1
    17    28    29    1
    18    29    32    1
    19    32    33    1
    20    32    34    2
    21    32    35    2
    22    29    30    1
    23    30    31    1
    24    23    24   ar
    25    24    25   ar
    26     5     6   ar
    27     6     7    1
    28    10    11   ar
    29    11    12   ar
    30    12    16    1
    31    16    17    1
    32    12    13   ar
    33    13    18    1
    34    18    19    1
    35    13     8   ar
    36     6     1   ar
    37    25    20   ar
    38    31    26    1
