@<TRIPOS>MOLECULE
*****
 29 33 0 0 0
SMALL
GASTEIGER

@<TRIPOS>ATOM
      1 C         143.4093  143.4624  162.4353 C.ar    1  UNL1        0.1305
      2 C         144.5089  142.8457  161.6226 C.ar    1  UNL1        0.0358
      3 C         145.0885  141.5226  162.0267 C.ar    1  UNL1        0.0251
      4 C         144.5686  140.8162  163.2435 C.ar    1  UNL1        0.1176
      5 N         144.9412  139.5111  163.8824 N.ar    1  UNL1       -0.2220
      6 C         144.0719  139.3213  165.0899 C.ar    1  UNL1        0.1851
      7 N         143.1620  140.5090  165.1974 N.ar    1  UNL1       -0.2578
      8 C         143.4690  141.4328  164.0562 C.ar    1  UNL1        0.1691
      9 N         142.8894  142.7560  163.6522 N.ar    1  UNL1       -0.2119
     10 C         142.1269  140.7334  166.2595 C.ar    1  UNL1        0.1447
     11 C         142.1005  141.8693  167.2389 C.ar    1  UNL1        0.0533
     12 C         140.8937  141.6992  168.1134 C.ar    1  UNL1        0.0810
     13 N         140.1743  140.4583  167.6746 N.ar    1  UNL1       -0.1758
     14 N         140.9364  139.8614  166.5288 N.ar    1  UNL1       -0.2609
     15 H         140.6973  139.0413  166.0395 H       1  UNL1        0.1905
     16 C         140.4791  142.6102  169.2307 C.3     1  UNL1        0.0421
     17 C         139.8046  142.8193  170.5541 C.3     1  UNL1        0.0064
     18 C         140.4356  143.9792  169.8424 C.3     1  UNL1        0.0064
     19 N         142.8296  144.7856  162.0313 N.pl3   1  UNL1       -0.3135
     20 H         143.3755  145.6024  162.0954 H       1  UNL1        0.1485
     21 C         141.1523  145.0863  160.0702 C.3     1  UNL1        0.0295
     22 C         141.4182  144.8643  161.5296 C.3     1  UNL1        0.1295
     23 C         140.2727  144.7210  162.4874 C.ar    1  UNL1        0.1570
     24 N         138.9138  144.3393  161.9797 N.ar    1  UNL1       -0.2251
     25 C         137.7683  144.1960  162.9374 C.ar    1  UNL1        0.1314
     26 C         137.9817  144.4344  164.4028 C.ar    1  UNL1        0.1783
     27 F         136.8362  144.2911  165.3606 F       1  UNL1       -0.2009
     28 C         139.3405  144.8161  164.9106 C.ar    1  UNL1        0.1314
     29 N         140.4860  144.9594  163.9529 N.ar    1  UNL1       -0.2251
@<TRIPOS>BOND
     1    22    21    1
     2    22    19    1
     3    19     1    1
     4     1     2   ar
     5     2     3   ar
     6     3     4   ar
     7     4     5   ar
     8     5     6   ar
     9     6     7   ar
    10     7    10    1
    11    10    11   ar
    12    11    12   ar
    13    12    16    1
    14    16    17    1
    15    17    18    1
    16    12    13   ar
    17    13    14   ar
    18     7     8   ar
    19     8     9   ar
    20    22    23    1
    21    23    24   ar
    22    24    25   ar
    23    25    26   ar
    24    26    27    1
    25    26    28   ar
    26    28    29   ar
    27     9     1   ar
    28    29    23   ar
    29     8     4   ar
    30    14    10   ar
    31    18    16    1
    32    19    20    1
    33    14    15    1
@<TRIPOS>MOLECULE
*****
 29 33 0 0 0
SMALL
GASTEIGER

@<TRIPOS>ATOM
      1 C         137.9457  141.7946  162.4486 C.ar    1  UNL1        0.1305
      2 C         137.7901  140.7926  161.3433 C.ar    1  UNL1        0.0358
      3 C         138.0023  139.3334  161.6184 C.ar    1  UNL1        0.0251
      4 C         138.3702  138.8762  162.9989 C.ar    1  UNL1        0.1176
      5 N         138.6406  137.5143  163.5664 N.ar    1  UNL1       -0.2220
      6 C         138.9633  137.6746  165.0224 C.ar    1  UNL1        0.1851
      7 N         138.8924  139.1356  165.3548 N.ar    1  UNL1       -0.2578
      8 C         138.5258  139.8782  164.1042 C.ar    1  UNL1        0.1691
      9 N         138.3136  141.3374  163.8291 N.ar    1  UNL1       -0.2119
     10 C         139.1439  139.7466  166.7014 C.ar    1  UNL1        0.1447
     11 C         139.9262  140.9981  166.9695 C.ar    1  UNL1        0.0533
     12 C         139.9230  141.2384  168.4502 C.ar    1  UNL1        0.0810
     13 N         139.1387  140.1355  169.0972 N.ar    1  UNL1       -0.1758
     14 N         138.6572  139.2136  168.0164 N.ar    1  UNL1       -0.2609
     15 H         138.1167  138.4012  168.1471 H       1  UNL1        0.1905
     16 C         140.5874  142.3810  169.1593 C.3     1  UNL1        0.0421
     17 C         140.5127  143.7443  169.7806 C.3     1  UNL1        0.0064
     18 C         141.8131  142.9969  169.7663 C.3     1  UNL1        0.0064
     19 N         137.7335  143.2538  162.1735 N.pl3   1  UNL1       -0.3135
     20 H         136.8381  143.5841  161.9317 H       1  UNL1        0.1485
     21 C         139.0383  145.0847  163.4756 C.3     1  UNL1        0.0295
     22 C         138.8855  144.2099  162.2667 C.3     1  UNL1        0.1295
     23 C         139.8849  144.2912  161.1510 C.ar    1  UNL1        0.1570
     24 N         139.7619  145.3649  160.1108 N.ar    1  UNL1       -0.2251
     25 C         140.7612  145.4463  158.9951 C.ar    1  UNL1        0.1314
     26 C         141.8835  144.4540  158.9197 C.ar    1  UNL1        0.1783
     27 F         142.8829  144.5353  157.8040 F       1  UNL1       -0.2009
     28 C         142.0065  143.3803  159.9600 C.ar    1  UNL1        0.1314
     29 N         141.0072  143.2989  161.0756 N.ar    1  UNL1       -0.2251
@<TRIPOS>BOND
     1    22    21    1
     2    22    19    1
     3    19     1    1
     4     1     2   ar
     5     2     3   ar
     6     3     4   ar
     7     4     5   ar
     8     5     6   ar
     9     6     7   ar
    10     7    10    1
    11    10    11   ar
    12    11    12   ar
    13    12    16    1
    14    16    17    1
    15    17    18    1
    16    12    13   ar
    17    13    14   ar
    18     7     8   ar
    19     8     9   ar
    20    22    23    1
    21    23    24   ar
    22    24    25   ar
    23    25    26   ar
    24    26    27    1
    25    26    28   ar
    26    28    29   ar
    27     9     1   ar
    28    29    23   ar
    29     8     4   ar
    30    14    10   ar
    31    18    16    1
    32    19    20    1
    33    14    15    1
@<TRIPOS>MOLECULE
*****
 29 33 0 0 0
SMALL
GASTEIGER

@<TRIPOS>ATOM
      1 C         138.3682  142.6753  162.5825 C.ar    1  UNL1        0.1305
      2 C         138.1375  141.8703  161.3380 C.ar    1  UNL1        0.0358
      3 C         138.1692  140.3718  161.3976 C.ar    1  UNL1        0.0251
      4 C         138.4314  139.6784  162.7015 C.ar    1  UNL1        0.1176
      5 N         138.5216  138.2260  163.0656 N.ar    1  UNL1       -0.2220
      6 C         138.8079  138.1334  164.5351 C.ar    1  UNL1        0.1851
      7 N         138.8948  139.5286  165.0792 N.ar    1  UNL1       -0.2578
      8 C         138.6621  140.4834  163.9460 C.ar    1  UNL1        0.1691
      9 N         138.6305  141.9819  163.8865 N.ar    1  UNL1       -0.2119
     10 C         139.1666  139.9032  166.5060 C.ar    1  UNL1        0.1447
     11 C         139.9577  141.0898  166.9706 C.ar    1  UNL1        0.0533
     12 C         139.9750  141.0769  168.4706 C.ar    1  UNL1        0.0810
     13 N         139.1946  139.8823  168.9329 N.ar    1  UNL1       -0.1758
     14 N         138.6949  139.1569  167.7188 N.ar    1  UNL1       -0.2609
     15 H         138.1526  138.3352  167.7180 H       1  UNL1        0.1905
     16 C         140.6537  142.0821  169.3531 C.3     1  UNL1        0.0421
     17 C         140.7408  143.4717  169.9113 C.3     1  UNL1        0.0064
     18 C         141.7421  142.4337  170.3236 C.3     1  UNL1        0.0064
     19 N         138.3365  144.1738  162.5230 N.pl3   1  UNL1       -0.3135
     20 H         137.4792  144.6516  162.6006 H       1  UNL1        0.1485
     21 C         139.5832  146.3051  161.7145 C.3     1  UNL1        0.0295
     22 C         139.6111  144.9444  162.3453 C.3     1  UNL1        0.1295
     23 C         140.9137  144.3544  162.7984 C.ar    1  UNL1        0.1570
     24 N         141.9228  143.8985  161.7866 N.ar    1  UNL1       -0.2251
     25 C         143.2253  143.3085  162.2396 C.ar    1  UNL1        0.1314
     26 C         143.5187  143.1744  163.7045 C.ar    1  UNL1        0.1783
     27 F         144.8213  142.5844  164.1576 F       1  UNL1       -0.2009
     28 C         142.5096  143.6304  164.7163 C.ar    1  UNL1        0.1314
     29 N         141.2071  144.2204  164.2633 N.ar    1  UNL1       -0.2251
@<TRIPOS>BOND
     1    22    21    1
     2    22    19    1
     3    19     1    1
     4     1     2   ar
     5     2     3   ar
     6     3     4   ar
     7     4     5   ar
     8     5     6   ar
     9     6     7   ar
    10     7    10    1
    11    10    11   ar
    12    11    12   ar
    13    12    16    1
    14    16    17    1
    15    17    18    1
    16    12    13   ar
    17    13    14   ar
    18     7     8   ar
    19     8     9   ar
    20    22    23    1
    21    23    24   ar
    22    24    25   ar
    23    25    26   ar
    24    26    27    1
    25    26    28   ar
    26    28    29   ar
    27     9     1   ar
    28    29    23   ar
    29     8     4   ar
    30    14    10   ar
    31    18    16    1
    32    19    20    1
    33    14    15    1
@<TRIPOS>MOLECULE
*****
 29 33 0 0 0
SMALL
GASTEIGER

@<TRIPOS>ATOM
      1 C         138.0504  140.3673  162.8847 C.ar    1  UNL1        0.1305
      2 C         137.9352  139.2981  161.8390 C.ar    1  UNL1        0.0358
      3 C         138.8106  138.0822  161.9102 C.ar    1  UNL1        0.0251
      4 C         139.8011  137.9354  163.0270 C.ar    1  UNL1        0.1176
      5 N         140.7901  136.8566  163.3561 N.ar    1  UNL1       -0.2220
      6 C         141.5165  137.2592  164.6052 C.ar    1  UNL1        0.1851
      7 N         140.9765  138.5867  165.0480 N.ar    1  UNL1       -0.2578
      8 C         139.9163  139.0046  164.0726 C.ar    1  UNL1        0.1691
      9 N         139.0409  140.2206  164.0015 N.ar    1  UNL1       -0.2119
     10 C         141.4189  139.3605  166.2545 C.ar    1  UNL1        0.1447
     11 C         140.6384  140.4395  166.9449 C.ar    1  UNL1        0.0533
     12 C         141.4567  140.9370  168.0995 C.ar    1  UNL1        0.0810
     13 N         142.7429  140.1655  168.1226 N.ar    1  UNL1       -0.1758
     14 N         142.7195  139.1912  166.9824 N.ar    1  UNL1       -0.2609
     15 H         143.4326  138.5527  166.7522 H       1  UNL1        0.1905
     16 C         141.0586  142.0165  169.0619 C.3     1  UNL1        0.0421
     17 C         140.0222  142.6636  169.9320 C.3     1  UNL1        0.0064
     18 C         141.4055  143.2391  169.8587 C.3     1  UNL1        0.0064
     19 N         137.1750  141.5834  162.8136 N.pl3   1  UNL1       -0.3135
     20 H         136.2275  141.4938  162.5617 H       1  UNL1        0.1485
     21 C         137.4546  143.5833  164.4482 C.3     1  UNL1        0.0295
     22 C         137.7432  142.9359  163.1263 C.3     1  UNL1        0.1295
     23 C         138.6001  143.6410  162.1170 C.ar    1  UNL1        0.1570
     24 N         138.7496  143.0770  160.7351 N.ar    1  UNL1       -0.2251
     25 C         139.6064  143.7820  159.7259 C.ar    1  UNL1        0.1314
     26 C         140.3139  145.0511  160.0985 C.ar    1  UNL1        0.1783
     27 F         141.1708  145.7562  159.0893 F       1  UNL1       -0.2009
     28 C         140.1645  145.6151  161.4804 C.ar    1  UNL1        0.1314
     29 N         139.3076  144.9101  162.4896 N.ar    1  UNL1       -0.2251
@<TRIPOS>BOND
     1    22    21    1
     2    22    19    1
     3    19     1    1
     4     1     2   ar
     5     2     3   ar
     6     3     4   ar
     7     4     5   ar
     8     5     6   ar
     9     6     7   ar
    10     7    10    1
    11    10    11   ar
    12    11    12   ar
    13    12    16    1
    14    16    17    1
    15    17    18    1
    16    12    13   ar
    17    13    14   ar
    18     7     8   ar
    19     8     9   ar
    20    22    23    1
    21    23    24   ar
    22    24    25   ar
    23    25    26   ar
    24    26    27    1
    25    26    28   ar
    26    28    29   ar
    27     9     1   ar
    28    29    23   ar
    29     8     4   ar
    30    14    10   ar
    31    18    16    1
    32    19    20    1
    33    14    15    1
@<TRIPOS>MOLECULE
*****
 29 33 0 0 0
SMALL
GASTEIGER

@<TRIPOS>ATOM
      1 C         142.1120  143.9508  161.1842 C.ar    1  UNL1        0.1305
      2 C         141.4799  145.1900  160.6232 C.ar    1  UNL1        0.0358
      3 C         140.0773  145.5566  161.0081 C.ar    1  UNL1        0.0251
      4 C         139.3067  144.6839  161.9539 C.ar    1  UNL1        0.1176
      5 N         137.9180  144.7891  162.5113 N.ar    1  UNL1       -0.2220
      6 C         137.6919  143.6148  163.4168 C.ar    1  UNL1        0.1851
      7 N         138.9408  142.7839  163.4190 N.ar    1  UNL1       -0.2578
      8 C         139.9387  143.4447  162.5150 C.ar    1  UNL1        0.1691
      9 N         141.3414  143.0781  162.1301 N.ar    1  UNL1       -0.2119
     10 C         139.1542  141.5151  164.1900 C.ar    1  UNL1        0.1447
     11 C         138.0941  140.7251  164.8987 C.ar    1  UNL1        0.0533
     12 C         138.7500  139.5351  165.5343 C.ar    1  UNL1        0.0810
     13 N         140.2154  139.5897  165.2185 N.ar    1  UNL1       -0.1758
     14 N         140.4652  140.8133  164.3877 N.ar    1  UNL1       -0.2609
     15 H         141.3366  141.1048  164.0342 H       1  UNL1        0.1905
     16 C         138.0614  138.4765  166.3436 C.3     1  UNL1        0.0421
     17 C         137.2354  138.0815  167.5319 C.3     1  UNL1        0.0064
     18 C         137.6944  137.0378  166.5572 C.3     1  UNL1        0.0064
     19 N         143.5147  143.5841  160.7993 N.pl3   1  UNL1       -0.3135
     20 H         144.1888  144.2892  160.6660 H       1  UNL1        0.1485
     21 C         143.9524  141.5526  159.2401 C.3     1  UNL1        0.0295
     22 C         143.8902  142.1434  160.6175 C.3     1  UNL1        0.1295
     23 C         144.2036  141.2933  161.8130 C.ar    1  UNL1        0.1570
     24 N         143.4483  140.0184  162.0455 N.ar    1  UNL1       -0.2251
     25 C         143.7617  139.1683  163.2410 C.ar    1  UNL1        0.1314
     26 C         144.8303  139.5933  164.2040 C.ar    1  UNL1        0.1783
     27 F         145.1437  138.7432  165.3995 F       1  UNL1       -0.2009
     28 C         145.5856  140.8682  163.9715 C.ar    1  UNL1        0.1314
     29 N         145.2723  141.7182  162.7760 N.ar    1  UNL1       -0.2251
@<TRIPOS>BOND
     1    22    21    1
     2    22    19    1
     3    19     1    1
     4     1     2   ar
     5     2     3   ar
     6     3     4   ar
     7     4     5   ar
     8     5     6   ar
     9     6     7   ar
    10     7    10    1
    11    10    11   ar
    12    11    12   ar
    13    12    16    1
    14    16    17    1
    15    17    18    1
    16    12    13   ar
    17    13    14   ar
    18     7     8   ar
    19     8     9   ar
    20    22    23    1
    21    23    24   ar
    22    24    25   ar
    23    25    26   ar
    24    26    27    1
    25    26    28   ar
    26    28    29   ar
    27     9     1   ar
    28    29    23   ar
    29     8     4   ar
    30    14    10   ar
    31    18    16    1
    32    19    20    1
    33    14    15    1
@<TRIPOS>MOLECULE
*****
 29 33 0 0 0
SMALL
GASTEIGER

@<TRIPOS>ATOM
      1 C         144.1926  140.3185  161.8322 C.ar    1  UNL1        0.1305
      2 C         144.4356  141.1968  160.6407 C.ar    1  UNL1        0.0358
      3 C         144.3655  142.6885  160.7819 C.ar    1  UNL1        0.0251
      4 C         144.0525  143.3019  162.1145 C.ar    1  UNL1        0.1176
      5 N         143.9173  144.7292  162.5555 N.ar    1  UNL1       -0.2220
      6 C         143.5908  144.7331  164.0195 C.ar    1  UNL1        0.1851
      7 N         143.5242  143.3081  164.4833 N.ar    1  UNL1       -0.2578
      8 C         143.8095  142.4236  163.3059 C.ar    1  UNL1        0.1691
      9 N         143.8796  140.9319  163.1648 N.ar    1  UNL1       -0.2119
     10 C         143.2247  142.8483  165.8793 C.ar    1  UNL1        0.1447
     11 C         142.0229  142.0605  166.3094 C.ar    1  UNL1        0.0533
     12 C         142.1300  141.8209  167.7864 C.ar    1  UNL1        0.0810
     13 N         143.3979  142.4607  168.2690 N.ar    1  UNL1       -0.1758
     14 N         144.0745  143.0956  167.0905 N.ar    1  UNL1       -0.2609
     15 H         144.9267  143.5882  167.1086 H       1  UNL1        0.1905
     16 C         141.1424  141.0730  168.6320 C.3     1  UNL1        0.0421
     17 C         139.7617  140.9348  169.2017 C.3     1  UNL1        0.0064
     18 C         140.8127  139.9154  169.5273 C.3     1  UNL1        0.0064
     19 N         144.2626  138.8268  161.6910 N.pl3   1  UNL1       -0.3135
     20 H         145.1176  138.3588  161.8293 H       1  UNL1        0.1485
     21 C         142.9030  137.4158  159.9850 C.3     1  UNL1        0.0295
     22 C         143.0298  138.0480  161.3393 C.3     1  UNL1        0.1295
     23 C         141.9237  137.9015  162.3419 C.ar    1  UNL1        0.1570
     24 N         140.5063  137.7432  161.8772 N.ar    1  UNL1       -0.2251
     25 C         139.4002  137.5967  162.8797 C.ar    1  UNL1        0.1314
     26 C         139.7115  137.6085  164.3469 C.ar    1  UNL1        0.1783
     27 F         138.6054  137.4620  165.3495 F       1  UNL1       -0.2009
     28 C         141.1289  137.7668  164.8117 C.ar    1  UNL1        0.1314
     29 N         142.2350  137.9133  163.8092 N.ar    1  UNL1       -0.2251
@<TRIPOS>BOND
     1    22    21    1
     2    22    19    1
     3    19     1    1
     4     1     2   ar
     5     2     3   ar
     6     3     4   ar
     7     4     5   ar
     8     5     6   ar
     9     6     7   ar
    10     7    10    1
    11    10    11   ar
    12    11    12   ar
    13    12    16    1
    14    16    17    1
    15    17    18    1
    16    12    13   ar
    17    13    14   ar
    18     7     8   ar
    19     8     9   ar
    20    22    23    1
    21    23    24   ar
    22    24    25   ar
    23    25    26   ar
    24    26    27    1
    25    26    28   ar
    26    28    29   ar
    27     9     1   ar
    28    29    23   ar
    29     8     4   ar
    30    14    10   ar
    31    18    16    1
    32    19    20    1
    33    14    15    1
@<TRIPOS>MOLECULE
*****
 29 33 0 0 0
SMALL
GASTEIGER

@<TRIPOS>ATOM
      1 C         140.3653  145.0643  162.1822 C.ar    1  UNL1        0.1305
      2 C         140.2046  145.6280  160.8015 C.ar    1  UNL1        0.0358
      3 C         141.1071  145.1695  159.6946 C.ar    1  UNL1        0.0251
      4 C         142.1701  144.1473  159.9684 C.ar    1  UNL1        0.1176
      5 N         143.1998  143.5084  159.0841 N.ar    1  UNL1       -0.2220
      6 C         143.9967  142.5499  159.9184 C.ar    1  UNL1        0.1851
      7 N         143.4596  142.5964  161.3182 N.ar    1  UNL1       -0.2578
      8 C         142.3308  143.5836  161.3491 C.ar    1  UNL1        0.1691
      9 N         141.4283  144.0421  162.4560 N.ar    1  UNL1       -0.2119
     10 C         143.9631  141.7961  162.4827 C.ar    1  UNL1        0.1447
     11 C         143.1229  140.9856  163.4247 C.ar    1  UNL1        0.0533
     12 C         144.0357  140.3544  164.4339 C.ar    1  UNL1        0.0810
     13 N         145.4400  140.7747  164.1157 N.ar    1  UNL1       -0.1758
     14 N         145.3951  141.6657  162.9098 N.ar    1  UNL1       -0.2609
     15 H         146.1696  142.0903  162.4750 H       1  UNL1        0.1905
     16 C         143.6175  139.4599  165.5630 C.3     1  UNL1        0.0421
     17 C         142.7460  139.1926  166.7543 C.3     1  UNL1        0.0064
     18 C         143.7647  138.1777  166.3275 C.3     1  UNL1        0.0064
     19 N         139.4628  145.5229  163.2893 N.pl3   1  UNL1       -0.3135
     20 H         139.2088  146.4717  163.3562 H       1  UNL1        0.1485
     21 C         138.6828  144.9708  165.7052 C.3     1  UNL1        0.0295
     22 C         138.9475  144.5358  164.2943 C.3     1  UNL1        0.1295
     23 C         138.6968  143.1136  163.8883 C.ar    1  UNL1        0.1570
     24 N         139.4763  142.0028  164.5274 N.ar    1  UNL1       -0.2251
     25 C         139.2256  140.5807  164.1215 C.ar    1  UNL1        0.1314
     26 C         138.1954  140.2694  163.0766 C.ar    1  UNL1        0.1783
     27 F         137.9447  138.8473  162.6707 F       1  UNL1       -0.2009
     28 C         137.4159  141.3803  162.4376 C.ar    1  UNL1        0.1314
     29 N         137.6666  142.8024  162.8434 N.ar    1  UNL1       -0.2251
@<TRIPOS>BOND
     1    22    21    1
     2    22    19    1
     3    19     1    1
     4     1     2   ar
     5     2     3   ar
     6     3     4   ar
     7     4     5   ar
     8     5     6   ar
     9     6     7   ar
    10     7    10    1
    11    10    11   ar
    12    11    12   ar
    13    12    16    1
    14    16    17    1
    15    17    18    1
    16    12    13   ar
    17    13    14   ar
    18     7     8   ar
    19     8     9   ar
    20    22    23    1
    21    23    24   ar
    22    24    25   ar
    23    25    26   ar
    24    26    27    1
    25    26    28   ar
    26    28    29   ar
    27     9     1   ar
    28    29    23   ar
    29     8     4   ar
    30    14    10   ar
    31    18    16    1
    32    19    20    1
    33    14    15    1
@<TRIPOS>MOLECULE
*****
 29 33 0 0 0
SMALL
GASTEIGER

@<TRIPOS>ATOM
      1 C         143.0351  142.9376  160.8930 C.ar    1  UNL1        0.1305
      2 C         143.5347  142.5330  159.5378 C.ar    1  UNL1        0.0358
      3 C         143.9237  141.1081  159.2766 C.ar    1  UNL1        0.0251
      4 C         143.8132  140.0878  160.3706 C.ar    1  UNL1        0.1176
      5 N         144.1206  138.6201  160.4090 N.ar    1  UNL1       -0.2220
      6 C         143.8110  138.1177  161.7880 C.ar    1  UNL1        0.1851
      7 N         143.3122  139.2749  162.6018 N.ar    1  UNL1       -0.2578
      8 C         143.3136  140.4925  161.7258 C.ar    1  UNL1        0.1691
      9 N         142.9246  141.9173  161.9870 N.ar    1  UNL1       -0.2119
     10 C         142.8868  139.2234  164.0393 C.ar    1  UNL1        0.1447
     11 C         141.5427  139.6181  164.5756 C.ar    1  UNL1        0.0533
     12 C         141.5560  139.4069  166.0607 C.ar    1  UNL1        0.0810
     13 N         142.9083  138.8818  166.4422 N.ar    1  UNL1       -0.1758
     14 N         143.7307  138.7684  165.1929 N.ar    1  UNL1       -0.2609
     15 H         144.6611  138.4510  165.1395 H       1  UNL1        0.1905
     16 C         140.4169  139.6740  166.9994 C.3     1  UNL1        0.0421
     17 C         139.9031  140.2352  168.2920 C.3     1  UNL1        0.0064
     18 C         138.9576  139.5753  167.3326 C.3     1  UNL1        0.0064
     19 N         142.6460  144.3626  161.1543 N.pl3   1  UNL1       -0.3135
     20 H         143.3214  145.0084  161.4640 H       1  UNL1        0.1485
     21 C         140.8048  145.3612  159.6171 C.3     1  UNL1        0.0295
     22 C         141.2278  144.8034  160.9438 C.3     1  UNL1        0.1295
     23 C         140.2325  144.6865  162.0600 C.ar    1  UNL1        0.1570
     24 N         140.6779  144.8532  163.4826 N.ar    1  UNL1       -0.2251
     25 C         139.6827  144.7363  164.5987 C.ar    1  UNL1        0.1314
     26 C         138.2420  144.4527  164.2922 C.ar    1  UNL1        0.1783
     27 F         137.2467  144.3358  165.4084 F       1  UNL1       -0.2009
     28 C         137.7966  144.2860  162.8696 C.ar    1  UNL1        0.1314
     29 N         138.7918  144.4029  161.7535 N.ar    1  UNL1       -0.2251
@<TRIPOS>BOND
     1    22    21    1
     2    22    19    1
     3    19     1    1
     4     1     2   ar
     5     2     3   ar
     6     3     4   ar
     7     4     5   ar
     8     5     6   ar
     9     6     7   ar
    10     7    10    1
    11    10    11   ar
    12    11    12   ar
    13    12    16    1
    14    16    17    1
    15    17    18    1
    16    12    13   ar
    17    13    14   ar
    18     7     8   ar
    19     8     9   ar
    20    22    23    1
    21    23    24   ar
    22    24    25   ar
    23    25    26   ar
    24    26    27    1
    25    26    28   ar
    26    28    29   ar
    27     9     1   ar
    28    29    23   ar
    29     8     4   ar
    30    14    10   ar
    31    18    16    1
    32    19    20    1
    33    14    15    1
@<TRIPOS>MOLECULE
*****
 29 33 0 0 0
SMALL
GASTEIGER

@<TRIPOS>ATOM
      1 C         142.8075  142.8769  160.3229 C.ar    1  UNL1        0.1305
      2 C         143.8888  142.6994  159.2986 C.ar    1  UNL1        0.0358
      3 C         144.1777  141.3370  158.7416 C.ar    1  UNL1        0.0251
      4 C         143.3854  140.1522  159.2088 C.ar    1  UNL1        0.1176
      5 N         143.4431  138.6986  158.8429 N.ar    1  UNL1       -0.2220
      6 C         142.3975  137.9778  159.6411 C.ar    1  UNL1        0.1851
      7 N         141.6936  138.9859  160.5003 N.ar    1  UNL1       -0.2578
      8 C         142.3041  140.3297  160.2331 C.ar    1  UNL1        0.1691
      9 N         142.0151  141.6921  160.7902 N.ar    1  UNL1       -0.2119
     10 C         140.5754  138.7003  161.4584 C.ar    1  UNL1        0.1447
     11 C         140.4912  139.1701  162.8805 C.ar    1  UNL1        0.0533
     12 C         139.2087  138.6549  163.4637 C.ar    1  UNL1        0.0810
     13 N         138.5004  137.8667  162.4021 N.ar    1  UNL1       -0.1758
     14 N         139.3450  137.8947  161.1628 N.ar    1  UNL1       -0.2609
     15 H         139.1296  137.4606  160.3058 H       1  UNL1        0.1905
     16 C         138.7205  138.8872  164.8628 C.3     1  UNL1        0.0421
     17 C         138.1899  138.3510  166.1594 C.3     1  UNL1        0.0064
     18 C         138.4054  139.8257  165.9897 C.3     1  UNL1        0.0064
     19 N         142.5185  144.2394  160.8801 N.pl3   1  UNL1       -0.3135
     20 H         142.3729  144.9994  160.2714 H       1  UNL1        0.1485
     21 C         143.7106  144.6638  163.1491 C.3     1  UNL1        0.0295
     22 C         142.4513  144.4438  162.3645 C.3     1  UNL1        0.1295
     23 C         141.1246  144.4283  163.0645 C.ar    1  UNL1        0.1570
     24 N         141.0467  144.0579  164.5159 N.ar    1  UNL1       -0.2251
     25 C         139.7202  144.0423  165.2158 C.ar    1  UNL1        0.1314
     26 C         138.4715  144.3972  164.4643 C.ar    1  UNL1        0.1783
     27 F         137.1448  144.3816  165.1643 F       1  UNL1       -0.2009
     28 C         138.5494  144.7676  163.0129 C.ar    1  UNL1        0.1314
     29 N         139.8759  144.7832  162.3129 N.ar    1  UNL1       -0.2251
@<TRIPOS>BOND
     1    22    21    1
     2    22    19    1
     3    19     1    1
     4     1     2   ar
     5     2     3   ar
     6     3     4   ar
     7     4     5   ar
     8     5     6   ar
     9     6     7   ar
    10     7    10    1
    11    10    11   ar
    12    11    12   ar
    13    12    16    1
    14    16    17    1
    15    17    18    1
    16    12    13   ar
    17    13    14   ar
    18     7     8   ar
    19     8     9   ar
    20    22    23    1
    21    23    24   ar
    22    24    25   ar
    23    25    26   ar
    24    26    27    1
    25    26    28   ar
    26    28    29   ar
    27     9     1   ar
    28    29    23   ar
    29     8     4   ar
    30    14    10   ar
    31    18    16    1
    32    19    20    1
    33    14    15    1
