@<TRIPOS>MOLECULE
*****
 39 44 0 0 0
SMALL
GASTEIGER

@<TRIPOS>ATOM
      1 C         137.8657  142.9994  163.0851 C.3     1  UNL1        0.0932
      2 C         138.0636  142.7471  161.6197 C.3     1  UNL1        0.0286
      3 C         138.0537  141.3430  161.0923 C.3     1  UNL1        0.0193
      4 C         137.8460  140.1909  162.0303 C.3     1  UNL1        0.0700
      5 C         137.6481  140.4431  163.4956 C.3     1  UNL1        0.0193
      6 C         137.6579  141.8474  164.0230 C.3     1  UNL1        0.0286
      7 C         137.8435  140.9428  162.3659 C.3     1  UNL1        0.1562
      8 O         137.8524  142.2125  162.8428 O.3     1  UNL1       -0.3572
      9 N         137.8361  138.7868  161.5029 N.3     1  UNL1       -0.2926
     10 H         137.2562  138.7915  160.6638 H       1  UNL1        0.1236
     11 C         139.1257  138.1150  161.1343 C.3     1  UNL1        0.1152
     12 C         140.3321  138.2749  162.0112 C.ar    1  UNL1        0.0765
     13 C         140.4884  137.4214  163.2348 C.ar    1  UNL1        0.0193
     14 C         141.6947  137.5814  164.1117 C.ar    1  UNL1        0.0411
     15 C         142.7449  138.5948  163.7651 C.ar    1  UNL1        0.1708
     16 C         142.5886  139.4483  162.5415 C.ar    1  UNL1        0.1682
     17 N         141.3822  139.2884  161.6646 N.ar    1  UNL1       -0.2304
     18 N         143.6388  140.4617  162.1949 N.am    1  UNL1       -0.2639
     19 C         144.8452  140.6216  163.0718 C.2     1  UNL1        0.2718
     20 O         145.8953  141.6351  162.7251 O.2     1  UNL1       -0.2707
     21 C         145.0015  139.7681  164.2954 C.3     1  UNL1        0.2898
     22 O         143.9513  138.7547  164.6420 O.3     1  UNL1       -0.4628
     23 H         143.5362  141.0219  161.3918 H       1  UNL1        0.1565
     24 C         137.8755  144.4035  163.6125 C.3     1  UNL1        0.0320
     25 C         138.8712  144.8041  164.6605 C.3     1  UNL1        0.0335
     26 C         140.5998  141.5266  167.2138 C.ar    1  UNL1        0.2250
     27 C         142.0417  141.1412  167.0646 C.ar    1  UNL1        0.0593
     28 C         142.9075  141.8484  166.0644 C.ar    1  UNL1        0.0254
     29 C         142.3313  142.9409  165.2133 C.ar    1  UNL1        0.0990
     30 N         143.1970  143.6480  164.2131 N.ar    1  UNL1       -0.2392
     31 C         142.6208  144.7405  163.3620 C.ar    1  UNL1        0.1351
     32 C         141.1788  145.1259  163.5111 C.ar    1  UNL1        0.1502
     33 O         140.6026  146.2184  162.6601 O.3     1  UNL1       -0.5042
     34 C         140.3131  144.4188  164.5113 C.ar    1  UNL1        0.0323
     35 C         140.8894  143.3262  165.3625 C.ar    1  UNL1        0.1009
     36 N         140.0236  142.6191  166.3627 N.ar    1  UNL1       -0.2104
     37 H         141.1435  146.6602  162.0353 H       1  UNL1        0.2922
     38 C         140.0407  140.9245  169.6785 C.3     1  UNL1        0.2542
     39 O         139.7340  140.8194  168.2140 O.3     1  UNL1       -0.4561
@<TRIPOS>BOND
     1    38    39    1
     2    39    26    1
     3    26    27   ar
     4    27    28   ar
     5    28    29   ar
     6    29    30   ar
     7    30    31   ar
     8    31    32   ar
     9    32    33    1
    10    32    34   ar
    11    34    25    1
    12    25    24    1
    13    24     1    1
    14     1     2    1
    15     2     3    1
    16     3     4    1
    17     4     9    1
    18     9    11    1
    19    11    12    1
    20    12    13   ar
    21    13    14   ar
    22    14    15   ar
    23    15    16   ar
    24    16    17   ar
    25    16    18    1
    26    18    19   am
    27    19    20    2
    28    19    21    1
    29    21    22    1
    30     4     5    1
    31     5     6    1
    32     4     7    1
    33     7     8    1
    34    34    35   ar
    35    35    36   ar
    36    36    26   ar
    37    35    29   ar
    38     6     1    1
    39     8     1    1
    40    17    12   ar
    41    22    15    1
    42    33    37    1
    43     9    10    1
    44    18    23    1
@<TRIPOS>MOLECULE
*****
 39 44 0 0 0
SMALL
GASTEIGER

@<TRIPOS>ATOM
      1 C         142.1016  138.0212  164.0133 C.3     1  UNL1        0.0932
      2 C         142.3466  138.3769  162.5768 C.3     1  UNL1        0.0286
      3 C         143.5028  139.2590  162.2092 C.3     1  UNL1        0.0193
      4 C         144.4140  139.7855  163.2782 C.3     1  UNL1        0.0700
      5 C         144.1690  139.4298  164.7147 C.3     1  UNL1        0.0193
      6 C         143.0128  138.5477  165.0822 C.3     1  UNL1        0.0286
      7 C         143.7935  139.3055  163.5282 C.3     1  UNL1        0.1562
      8 O         142.7481  138.5079  163.8606 O.3     1  UNL1       -0.3572
      9 N         145.5702  140.6676  162.9106 N.3     1  UNL1       -0.2926
     10 H         145.6178  140.6813  161.8918 H       1  UNL1        0.1236
     11 C         145.5971  142.0969  163.3647 C.3     1  UNL1        0.1152
     12 C         144.3784  142.9570  163.2069 C.ar    1  UNL1        0.0765
     13 C         143.6966  143.5213  164.4180 C.ar    1  UNL1        0.0193
     14 C         142.4779  144.3814  164.2602 C.ar    1  UNL1        0.0411
     15 C         141.9410  144.6774  162.8912 C.ar    1  UNL1        0.1708
     16 C         142.6227  144.1132  161.6801 C.ar    1  UNL1        0.1682
     17 N         143.8414  143.2530  161.8379 N.ar    1  UNL1       -0.2304
     18 N         142.0858  144.4091  160.3111 N.am    1  UNL1       -0.2639
     19 C         140.8671  145.2692  160.1533 C.2     1  UNL1        0.2718
     20 O         140.3301  145.5652  158.7843 O.2     1  UNL1       -0.2707
     21 C         140.1853  145.8335  161.3644 C.3     1  UNL1        0.2898
     22 O         140.7222  145.5375  162.7334 O.3     1  UNL1       -0.4628
     23 H         142.5332  144.0388  159.5162 H       1  UNL1        0.1565
     24 C         140.9455  137.1391  164.3809 C.3     1  UNL1        0.0320
     25 C         139.6494  137.7484  164.8272 C.3     1  UNL1        0.0335
     26 C         140.2445  141.8232  166.6417 C.ar    1  UNL1        0.2250
     27 C         139.7086  143.0393  165.9462 C.ar    1  UNL1        0.0593
     28 C         138.9744  142.8973  164.6459 C.ar    1  UNL1        0.0254
     29 C         138.7761  141.5391  164.0411 C.ar    1  UNL1        0.0990
     30 N         138.0419  141.3971  162.7408 N.ar    1  UNL1       -0.2392
     31 C         137.8435  140.0388  162.1360 C.ar    1  UNL1        0.1351
     32 C         138.3794  138.8226  162.8315 C.ar    1  UNL1        0.1502
     33 O         138.1810  137.4644  162.2266 O.3     1  UNL1       -0.5042
     34 C         139.1136  138.9646  164.1318 C.ar    1  UNL1        0.0323
     35 C         139.3119  140.3229  164.7366 C.ar    1  UNL1        0.1009
     36 N         140.0461  140.4650  166.0369 N.ar    1  UNL1       -0.2104
     37 H         137.7224  137.3756  161.4144 H       1  UNL1        0.2922
     38 C         140.5307  142.9826  168.9490 C.3     1  UNL1        0.2542
     39 O         140.9787  141.9652  167.9420 O.3     1  UNL1       -0.4561
@<TRIPOS>BOND
     1    38    39    1
     2    39    26    1
     3    26    27   ar
     4    27    28   ar
     5    28    29   ar
     6    29    30   ar
     7    30    31   ar
     8    31    32   ar
     9    32    33    1
    10    32    34   ar
    11    34    25    1
    12    25    24    1
    13    24     1    1
    14     1     2    1
    15     2     3    1
    16     3     4    1
    17     4     9    1
    18     9    11    1
    19    11    12    1
    20    12    13   ar
    21    13    14   ar
    22    14    15   ar
    23    15    16   ar
    24    16    17   ar
    25    16    18    1
    26    18    19   am
    27    19    20    2
    28    19    21    1
    29    21    22    1
    30     4     5    1
    31     5     6    1
    32     4     7    1
    33     7     8    1
    34    34    35   ar
    35    35    36   ar
    36    36    26   ar
    37    35    29   ar
    38     6     1    1
    39     8     1    1
    40    17    12   ar
    41    22    15    1
    42    33    37    1
    43     9    10    1
    44    18    23    1
@<TRIPOS>MOLECULE
*****
 39 44 0 0 0
SMALL
GASTEIGER

@<TRIPOS>ATOM
      1 C         144.5008  139.8288  163.6113 C.3     1  UNL1        0.0932
      2 C         143.6412  139.1113  164.6094 C.3     1  UNL1        0.0286
      3 C         142.4987  138.2600  164.1405 C.3     1  UNL1        0.0193
      4 C         142.2157  138.1263  162.6735 C.3     1  UNL1        0.0700
      5 C         143.0753  138.8438  161.6754 C.3     1  UNL1        0.0193
      6 C         144.2179  139.6951  162.1444 C.3     1  UNL1        0.0286
      7 C         142.8529  138.6040  162.8825 C.3     1  UNL1        0.1562
      8 O         143.8860  139.3738  163.3065 O.3     1  UNL1       -0.3572
      9 N         141.0731  137.2750  162.2046 N.3     1  UNL1       -0.2926
     10 H         140.8323  136.6540  162.9771 H       1  UNL1        0.1236
     11 C         139.7958  137.9176  161.7512 C.3     1  UNL1        0.1152
     12 C         139.2527  139.1072  162.4858 C.ar    1  UNL1        0.0765
     13 C         138.6379  138.9340  163.8431 C.ar    1  UNL1        0.0193
     14 C         138.0948  140.1236  164.5778 C.ar    1  UNL1        0.0411
     15 C         138.1664  141.4864  163.9552 C.ar    1  UNL1        0.1708
     16 C         138.7811  141.6597  162.5980 C.ar    1  UNL1        0.1682
     17 N         139.3243  140.4700  161.8633 N.ar    1  UNL1       -0.2304
     18 N         138.8527  143.0225  161.9755 N.am    1  UNL1       -0.2639
     19 C         138.3095  144.2121  162.7101 C.2     1  UNL1        0.2718
     20 O         138.3811  145.5749  162.0876 O.2     1  UNL1       -0.2707
     21 C         137.6948  144.0389  164.0674 C.3     1  UNL1        0.2898
     22 O         137.6232  142.6761  164.6900 O.3     1  UNL1       -0.4628
     23 H         139.2561  143.1362  161.0847 H       1  UNL1        0.1565
     24 C         145.6434  140.6801  164.0802 C.3     1  UNL1        0.0320
     25 C         145.4507  142.1555  164.2704 C.3     1  UNL1        0.0335
     26 C         142.3096  141.8243  167.4757 C.ar    1  UNL1        0.2250
     27 C         140.9567  142.4372  167.2661 C.ar    1  UNL1        0.0593
     28 C         140.6508  143.1604  165.9881 C.ar    1  UNL1        0.0254
     29 C         141.6978  143.2709  164.9197 C.ar    1  UNL1        0.0990
     30 N         141.3919  143.9941  163.6417 N.ar    1  UNL1       -0.2392
     31 C         142.4389  144.1046  162.5733 C.ar    1  UNL1        0.1351
     32 C         143.7919  143.4917  162.7828 C.ar    1  UNL1        0.1502
     33 O         144.8389  143.6021  161.7144 O.3     1  UNL1       -0.5042
     34 C         144.0978  142.7684  164.0608 C.ar    1  UNL1        0.0323
     35 C         143.0507  142.6580  165.1293 C.ar    1  UNL1        0.1009
     36 N         143.3566  141.9347  166.4073 N.ar    1  UNL1       -0.2104
     37 H         144.6478  144.0539  160.9161 H       1  UNL1        0.2922
     38 C         142.5539  139.6030  168.8009 C.3     1  UNL1        0.2542
     39 O         142.6155  141.1010  168.7537 O.3     1  UNL1       -0.4561
@<TRIPOS>BOND
     1    38    39    1
     2    39    26    1
     3    26    27   ar
     4    27    28   ar
     5    28    29   ar
     6    29    30   ar
     7    30    31   ar
     8    31    32   ar
     9    32    33    1
    10    32    34   ar
    11    34    25    1
    12    25    24    1
    13    24     1    1
    14     1     2    1
    15     2     3    1
    16     3     4    1
    17     4     9    1
    18     9    11    1
    19    11    12    1
    20    12    13   ar
    21    13    14   ar
    22    14    15   ar
    23    15    16   ar
    24    16    17   ar
    25    16    18    1
    26    18    19   am
    27    19    20    2
    28    19    21    1
    29    21    22    1
    30     4     5    1
    31     5     6    1
    32     4     7    1
    33     7     8    1
    34    34    35   ar
    35    35    36   ar
    36    36    26   ar
    37    35    29   ar
    38     6     1    1
    39     8     1    1
    40    17    12   ar
    41    22    15    1
    42    33    37    1
    43     9    10    1
    44    18    23    1
@<TRIPOS>MOLECULE
*****
 39 44 0 0 0
SMALL
GASTEIGER

@<TRIPOS>ATOM
      1 C         138.0313  142.9923  163.6851 C.3     1  UNL1        0.0932
      2 C         138.1176  141.8014  164.5930 C.3     1  UNL1        0.0286
      3 C         137.9824  140.4177  164.0299 C.3     1  UNL1        0.0193
      4 C         137.7609  140.2249  162.5588 C.3     1  UNL1        0.0700
      5 C         137.6746  141.4158  161.6510 C.3     1  UNL1        0.0193
      6 C         137.8098  142.7996  162.2141 C.3     1  UNL1        0.0286
      7 C         137.8290  141.0024  162.8212 C.3     1  UNL1        0.1562
      8 O         137.9512  142.2536  163.3303 O.3     1  UNL1       -0.3572
      9 N         137.6257  138.8412  161.9958 N.3     1  UNL1       -0.2926
     10 H         136.9534  138.8990  161.2309 H       1  UNL1        0.1236
     11 C         138.8317  138.1287  161.4592 C.3     1  UNL1        0.1152
     12 C         140.1954  138.4583  161.9899 C.ar    1  UNL1        0.0765
     13 C         141.1836  139.1801  161.1223 C.ar    1  UNL1        0.0193
     14 C         142.5473  139.5097  161.6529 C.ar    1  UNL1        0.0411
     15 C         142.9229  139.1177  163.0512 C.ar    1  UNL1        0.1708
     16 C         141.9348  138.3960  163.9188 C.ar    1  UNL1        0.1682
     17 N         140.5710  138.0663  163.3882 N.ar    1  UNL1       -0.2304
     18 N         142.3104  138.0039  165.3171 N.am    1  UNL1       -0.2639
     19 C         143.6741  138.3336  165.8478 C.2     1  UNL1        0.2718
     20 O         144.0497  137.9415  167.2461 O.2     1  UNL1       -0.2707
     21 C         144.6623  139.0553  164.9801 C.3     1  UNL1        0.2898
     22 O         144.2867  139.4474  163.5818 O.3     1  UNL1       -0.4628
     23 H         141.6619  137.5302  165.8866 H       1  UNL1        0.1565
     24 C         138.1665  144.3760  164.2482 C.3     1  UNL1        0.0320
     25 C         139.5081  145.0462  164.2771 C.3     1  UNL1        0.0335
     26 C         143.4309  142.8900  164.7380 C.ar    1  UNL1        0.2250
     27 C         144.3586  142.7620  163.5663 C.ar    1  UNL1        0.0593
     28 C         143.9787  143.3528  162.2409 C.ar    1  UNL1        0.0254
     29 C         142.6711  144.0716  162.0873 C.ar    1  UNL1        0.0990
     30 N         142.2913  144.6623  160.7619 N.ar    1  UNL1       -0.2392
     31 C         140.9837  145.3811  160.6082 C.ar    1  UNL1        0.1351
     32 C         140.0559  145.5091  161.7800 C.ar    1  UNL1        0.1502
     33 O         138.7484  146.2278  161.6263 O.3     1  UNL1       -0.5042
     34 C         140.4358  144.9183  163.1054 C.ar    1  UNL1        0.0323
     35 C         141.7435  144.1995  163.2590 C.ar    1  UNL1        0.1009
     36 N         142.1233  143.6087  164.5844 N.ar    1  UNL1       -0.2104
     37 H         138.5111  146.5968  160.7984 H       1  UNL1        0.2922
     38 C         142.7441  141.8770  167.0298 C.3     1  UNL1        0.2542
     39 O         143.8108  142.2992  166.0634 O.3     1  UNL1       -0.4561
@<TRIPOS>BOND
     1    38    39    1
     2    39    26    1
     3    26    27   ar
     4    27    28   ar
     5    28    29   ar
     6    29    30   ar
     7    30    31   ar
     8    31    32   ar
     9    32    33    1
    10    32    34   ar
    11    34    25    1
    12    25    24    1
    13    24     1    1
    14     1     2    1
    15     2     3    1
    16     3     4    1
    17     4     9    1
    18     9    11    1
    19    11    12    1
    20    12    13   ar
    21    13    14   ar
    22    14    15   ar
    23    15    16   ar
    24    16    17   ar
    25    16    18    1
    26    18    19   am
    27    19    20    2
    28    19    21    1
    29    21    22    1
    30     4     5    1
    31     5     6    1
    32     4     7    1
    33     7     8    1
    34    34    35   ar
    35    35    36   ar
    36    36    26   ar
    37    35    29   ar
    38     6     1    1
    39     8     1    1
    40    17    12   ar
    41    22    15    1
    42    33    37    1
    43     9    10    1
    44    18    23    1
@<TRIPOS>MOLECULE
*****
 39 44 0 0 0
SMALL
GASTEIGER

@<TRIPOS>ATOM
      1 C         144.4727  139.7744  163.6983 C.3     1  UNL1        0.0932
      2 C         143.5627  139.3448  164.8106 C.3     1  UNL1        0.0286
      3 C         142.4000  138.4421  164.5221 C.3     1  UNL1        0.0193
      4 C         142.1473  137.9691  163.1212 C.3     1  UNL1        0.0700
      5 C         143.0573  138.3988  162.0089 C.3     1  UNL1        0.0193
      6 C         144.2200  139.3015  162.2975 C.3     1  UNL1        0.0286
      7 C         142.7971  138.4628  163.2305 C.3     1  UNL1        0.1562
      8 O         143.8485  139.2790  163.4914 O.3     1  UNL1       -0.3572
      9 N         140.9846  137.0664  162.8327 N.3     1  UNL1       -0.2926
     10 H         140.8201  136.5190  163.6775 H       1  UNL1        0.1236
     11 C         139.6628  137.6510  162.4313 C.3     1  UNL1        0.1152
     12 C         139.1989  138.9424  163.0371 C.ar    1  UNL1        0.0765
     13 C         138.6243  138.9573  164.4226 C.ar    1  UNL1        0.0193
     14 C         138.1604  140.2487  165.0284 C.ar    1  UNL1        0.0411
     15 C         138.2710  141.5253  164.2487 C.ar    1  UNL1        0.1708
     16 C         138.8455  141.5105  162.8632 C.ar    1  UNL1        0.1682
     17 N         139.3095  140.2190  162.2573 N.ar    1  UNL1       -0.2304
     18 N         138.9561  142.7871  162.0834 N.am    1  UNL1       -0.2639
     19 C         138.4922  144.0785  162.6892 C.2     1  UNL1        0.2718
     20 O         138.6028  145.3552  161.9094 O.2     1  UNL1       -0.2707
     21 C         137.9176  144.0934  164.0747 C.3     1  UNL1        0.2898
     22 O         137.8070  142.8167  164.8545 O.3     1  UNL1       -0.4628
     23 H         139.3332  142.7774  161.1740 H       1  UNL1        0.1565
     24 C         145.6355  140.6771  163.9868 C.3     1  UNL1        0.0320
     25 C         145.6466  142.0794  163.4542 C.3     1  UNL1        0.0335
     26 C         144.0204  142.7347  159.3098 C.ar    1  UNL1        0.2250
     27 C         142.7298  143.4747  159.1189 C.ar    1  UNL1        0.0593
     28 C         141.9811  143.9963  160.3095 C.ar    1  UNL1        0.0254
     29 C         142.5231  143.7779  161.6909 C.ar    1  UNL1        0.0990
     30 N         141.7745  144.2995  162.8815 N.ar    1  UNL1       -0.2392
     31 C         142.3165  144.0811  164.2629 C.ar    1  UNL1        0.1351
     32 C         143.6073  143.3410  164.4539 C.ar    1  UNL1        0.1502
     33 O         144.1493  143.1226  165.8353 O.3     1  UNL1       -0.5042
     34 C         144.3559  142.8194  163.2633 C.ar    1  UNL1        0.0323
     35 C         143.8138  143.0378  161.8818 C.ar    1  UNL1        0.1009
     36 N         144.5624  142.5162  160.6912 N.ar    1  UNL1       -0.2104
     37 H         143.6816  143.4484  166.5790 H       1  UNL1        0.2922
     38 C         144.5519  140.8032  157.6554 C.3     1  UNL1        0.2542
     39 O         144.7691  142.2130  158.1192 O.3     1  UNL1       -0.4561
@<TRIPOS>BOND
     1    38    39    1
     2    39    26    1
     3    26    27   ar
     4    27    28   ar
     5    28    29   ar
     6    29    30   ar
     7    30    31   ar
     8    31    32   ar
     9    32    33    1
    10    32    34   ar
    11    34    25    1
    12    25    24    1
    13    24     1    1
    14     1     2    1
    15     2     3    1
    16     3     4    1
    17     4     9    1
    18     9    11    1
    19    11    12    1
    20    12    13   ar
    21    13    14   ar
    22    14    15   ar
    23    15    16   ar
    24    16    17   ar
    25    16    18    1
    26    18    19   am
    27    19    20    2
    28    19    21    1
    29    21    22    1
    30     4     5    1
    31     5     6    1
    32     4     7    1
    33     7     8    1
    34    34    35   ar
    35    35    36   ar
    36    36    26   ar
    37    35    29   ar
    38     6     1    1
    39     8     1    1
    40    17    12   ar
    41    22    15    1
    42    33    37    1
    43     9    10    1
    44    18    23    1
@<TRIPOS>MOLECULE
*****
 39 44 0 0 0
SMALL
GASTEIGER

@<TRIPOS>ATOM
      1 C         143.8252  142.1085  163.7828 C.3     1  UNL1        0.0932
      2 C         143.9881  142.8879  162.5116 C.3     1  UNL1        0.0286
      3 C         143.1931  144.1410  162.2931 C.3     1  UNL1        0.0193
      4 C         142.2352  144.6147  163.3458 C.3     1  UNL1        0.0700
      5 C         142.0724  143.8353  164.6170 C.3     1  UNL1        0.0193
      6 C         142.8674  142.5821  164.8355 C.3     1  UNL1        0.0286
      7 C         142.6490  143.9222  163.5106 C.3     1  UNL1        0.1562
      8 O         143.3679  142.7891  163.7082 O.3     1  UNL1       -0.3572
      9 N         141.4402  145.8677  163.1273 N.3     1  UNL1       -0.2926
     10 H         142.0598  146.5325  162.6639 H       1  UNL1        0.1236
     11 C         140.1747  145.8224  162.3234 C.3     1  UNL1        0.1152
     12 C         139.4286  144.5301  162.1713 C.ar    1  UNL1        0.0765
     13 C         138.4158  144.1232  163.2003 C.ar    1  UNL1        0.0193
     14 C         137.6697  142.8308  163.0482 C.ar    1  UNL1        0.0411
     15 C         137.9364  141.9453  161.8672 C.ar    1  UNL1        0.1708
     16 C         138.9491  142.3522  160.8383 C.ar    1  UNL1        0.1682
     17 N         139.6952  143.6446  160.9903 N.ar    1  UNL1       -0.2304
     18 N         139.2158  141.4667  159.6573 N.am    1  UNL1       -0.2639
     19 C         138.4697  140.1744  159.5052 C.2     1  UNL1        0.2718
     20 O         138.7363  139.2889  158.3242 O.2     1  UNL1       -0.2707
     21 C         137.4569  139.7674  160.5342 C.3     1  UNL1        0.2898
     22 O         137.1902  140.6529  161.7152 O.3     1  UNL1       -0.4628
     23 H         139.8805  141.7337  158.9819 H       1  UNL1        0.1565
     24 C         144.6202  140.8554  164.0013 C.3     1  UNL1        0.0320
     25 C         143.9342  139.6020  164.4579 C.3     1  UNL1        0.0335
     26 C         139.6656  139.5457  165.8812 C.ar    1  UNL1        0.2250
     27 C         138.5995  138.9217  165.0303 C.ar    1  UNL1        0.0593
     28 C         138.9562  138.3165  163.7050 C.ar    1  UNL1        0.0254
     29 C         140.3791  138.3352  163.2305 C.ar    1  UNL1        0.0990
     30 N         140.7358  137.7300  161.9052 N.ar    1  UNL1       -0.2392
     31 C         142.1586  137.7488  161.4308 C.ar    1  UNL1        0.1351
     32 C         143.2248  138.3728  162.2817 C.ar    1  UNL1        0.1502
     33 O         144.6477  138.3915  161.8073 O.3     1  UNL1       -0.5042
     34 C         142.8681  138.9780  163.6070 C.ar    1  UNL1        0.0323
     35 C         141.4452  138.9592  164.0814 C.ar    1  UNL1        0.1009
     36 N         141.0884  139.5645  165.4067 N.ar    1  UNL1       -0.2104
     37 H         144.8705  138.0135  160.9794 H       1  UNL1        0.2922
     38 C         140.2786  140.0803  168.3486 C.3     1  UNL1        0.2542
     39 O         139.3089  140.1509  167.2065 O.3     1  UNL1       -0.4561
@<TRIPOS>BOND
     1    38    39    1
     2    39    26    1
     3    26    27   ar
     4    27    28   ar
     5    28    29   ar
     6    29    30   ar
     7    30    31   ar
     8    31    32   ar
     9    32    33    1
    10    32    34   ar
    11    34    25    1
    12    25    24    1
    13    24     1    1
    14     1     2    1
    15     2     3    1
    16     3     4    1
    17     4     9    1
    18     9    11    1
    19    11    12    1
    20    12    13   ar
    21    13    14   ar
    22    14    15   ar
    23    15    16   ar
    24    16    17   ar
    25    16    18    1
    26    18    19   am
    27    19    20    2
    28    19    21    1
    29    21    22    1
    30     4     5    1
    31     5     6    1
    32     4     7    1
    33     7     8    1
    34    34    35   ar
    35    35    36   ar
    36    36    26   ar
    37    35    29   ar
    38     6     1    1
    39     8     1    1
    40    17    12   ar
    41    22    15    1
    42    33    37    1
    43     9    10    1
    44    18    23    1
@<TRIPOS>MOLECULE
*****
 39 44 0 0 0
SMALL
GASTEIGER

@<TRIPOS>ATOM
      1 C         139.3946  137.9261  164.4572 C.3     1  UNL1        0.0932
      2 C         138.9918  138.1276  163.0265 C.3     1  UNL1        0.0286
      3 C         139.9936  137.9221  161.9292 C.3     1  UNL1        0.0193
      4 C         141.3984  137.5152  162.2627 C.3     1  UNL1        0.0700
      5 C         141.8012  137.3137  163.6935 C.3     1  UNL1        0.0193
      6 C         140.7992  137.5192  164.7908 C.3     1  UNL1        0.0286
      7 C         140.8846  137.6159  162.8981 C.3     1  UNL1        0.1562
      8 O         139.9787  137.8017  163.8903 O.3     1  UNL1       -0.3572
      9 N         142.4002  137.3097  161.1654 N.3     1  UNL1       -0.2926
     10 H         141.9164  137.4940  160.2866 H       1  UNL1        0.1236
     11 C         143.6634  138.1183  161.1421 C.3     1  UNL1        0.1152
     12 C         143.6614  139.5277  161.6556 C.ar    1  UNL1        0.0765
     13 C         144.5650  139.9144  162.7887 C.ar    1  UNL1        0.0193
     14 C         144.5630  141.3238  163.3021 C.ar    1  UNL1        0.0411
     15 C         143.6573  142.3464  162.6825 C.ar    1  UNL1        0.1708
     16 C         142.7536  141.9597  161.5495 C.ar    1  UNL1        0.1682
     17 N         142.7557  140.5503  161.0360 N.ar    1  UNL1       -0.2304
     18 N         141.8479  142.9824  160.9299 N.am    1  UNL1       -0.2639
     19 C         141.8459  144.3917  161.4433 C.2     1  UNL1        0.2718
     20 O         140.9402  145.4144  160.8237 O.2     1  UNL1       -0.2707
     21 C         142.7495  144.7785  162.5765 C.3     1  UNL1        0.2898
     22 O         143.6552  143.7558  163.1961 O.3     1  UNL1       -0.4628
     23 H         141.2549  142.7286  160.1862 H       1  UNL1        0.1565
     24 C         138.3927  138.1316  165.5545 C.3     1  UNL1        0.0320
     25 C         138.2041  139.4943  166.1524 C.3     1  UNL1        0.0335
     26 C         142.2827  140.3794  167.8351 C.ar    1  UNL1        0.2250
     27 C         143.0727  141.5430  167.3138 C.ar    1  UNL1        0.0593
     28 C         142.5032  142.4116  166.2316 C.ar    1  UNL1        0.0254
     29 C         141.1437  142.1166  165.6707 C.ar    1  UNL1        0.0990
     30 N         140.5742  142.9853  164.5885 N.ar    1  UNL1       -0.2392
     31 C         139.2147  142.6903  164.0276 C.ar    1  UNL1        0.1351
     32 C         138.4246  141.5266  164.5489 C.ar    1  UNL1        0.1502
     33 O         137.0651  141.2316  163.9880 O.3     1  UNL1       -0.5042
     34 C         138.9941  140.6580  165.6311 C.ar    1  UNL1        0.0323
     35 C         140.3537  140.9530  166.1920 C.ar    1  UNL1        0.1009
     36 N         140.9232  140.0844  167.2742 N.ar    1  UNL1       -0.2104
     37 H         136.7094  141.7742  163.3120 H       1  UNL1        0.2922
     38 C         142.1373  139.3819  170.2297 C.3     1  UNL1        0.2542
     39 O         142.8522  139.5107  168.9173 O.3     1  UNL1       -0.4561
@<TRIPOS>BOND
     1    38    39    1
     2    39    26    1
     3    26    27   ar
     4    27    28   ar
     5    28    29   ar
     6    29    30   ar
     7    30    31   ar
     8    31    32   ar
     9    32    33    1
    10    32    34   ar
    11    34    25    1
    12    25    24    1
    13    24     1    1
    14     1     2    1
    15     2     3    1
    16     3     4    1
    17     4     9    1
    18     9    11    1
    19    11    12    1
    20    12    13   ar
    21    13    14   ar
    22    14    15   ar
    23    15    16   ar
    24    16    17   ar
    25    16    18    1
    26    18    19   am
    27    19    20    2
    28    19    21    1
    29    21    22    1
    30     4     5    1
    31     5     6    1
    32     4     7    1
    33     7     8    1
    34    34    35   ar
    35    35    36   ar
    36    36    26   ar
    37    35    29   ar
    38     6     1    1
    39     8     1    1
    40    17    12   ar
    41    22    15    1
    42    33    37    1
    43     9    10    1
    44    18    23    1
@<TRIPOS>MOLECULE
*****
 39 44 0 0 0
SMALL
GASTEIGER

@<TRIPOS>ATOM
      1 C         139.0848  143.8413  163.4266 C.3     1  UNL1        0.0932
      2 C         140.0047  144.3593  164.4922 C.3     1  UNL1        0.0286
      3 C         141.3866  144.8181  164.1321 C.3     1  UNL1        0.0193
      4 C         141.8488  144.7589  162.7062 C.3     1  UNL1        0.0700
      5 C         140.9289  144.2409  161.6406 C.3     1  UNL1        0.0193
      6 C         139.5469  143.7821  162.0008 C.3     1  UNL1        0.0286
      7 C         141.0827  144.4963  162.8552 C.3     1  UNL1        0.1562
      8 O         139.8331  144.0815  163.1808 O.3     1  UNL1       -0.3572
      9 N         143.2307  145.2177  162.3461 N.3     1  UNL1       -0.2926
     10 H         143.3665  146.1236  162.7949 H       1  UNL1        0.1236
     11 C         144.4182  144.3744  162.7048 C.3     1  UNL1        0.1152
     12 C         144.3207  142.8787  162.6476 C.ar    1  UNL1        0.0765
     13 C         144.5757  142.0628  163.8802 C.ar    1  UNL1        0.0193
     14 C         144.4782  140.5671  163.8230 C.ar    1  UNL1        0.0411
     15 C         144.1258  139.8872  162.5332 C.ar    1  UNL1        0.1708
     16 C         143.8707  140.7031  161.3007 C.ar    1  UNL1        0.1682
     17 N         143.9682  142.1989  161.3578 N.ar    1  UNL1       -0.2304
     18 N         143.5183  140.0232  160.0109 N.am    1  UNL1       -0.2639
     19 C         143.4208  138.5275  159.9537 C.2     1  UNL1        0.2718
     20 O         143.0683  137.8477  158.6639 O.2     1  UNL1       -0.2707
     21 C         143.6758  137.7116  161.1863 C.3     1  UNL1        0.2898
     22 O         144.0283  138.3914  162.4761 O.3     1  UNL1       -0.4628
     23 H         143.3509  140.5587  159.2019 H       1  UNL1        0.1565
     24 C         137.7029  143.3825  163.7867 C.3     1  UNL1        0.0320
     25 C         137.4943  142.0160  164.3692 C.3     1  UNL1        0.0335
     26 C         140.8429  140.7369  167.0895 C.ar    1  UNL1        0.2250
     27 C         141.7433  139.6058  166.6899 C.ar    1  UNL1        0.0593
     28 C         141.5276  138.9010  165.3835 C.ar    1  UNL1        0.0254
     29 C         140.4114  139.3274  164.4767 C.ar    1  UNL1        0.0990
     30 N         140.1956  138.6226  163.1703 N.ar    1  UNL1       -0.2392
     31 C         139.0794  139.0490  162.2635 C.ar    1  UNL1        0.1351
     32 C         138.1789  140.1801  162.6631 C.ar    1  UNL1        0.1502
     33 O         137.0627  140.6065  161.7563 O.3     1  UNL1       -0.5042
     34 C         138.3947  140.8849  163.9695 C.ar    1  UNL1        0.0323
     35 C         139.5109  140.4585  164.8763 C.ar    1  UNL1        0.1009
     36 N         139.7267  141.1633  166.1828 N.ar    1  UNL1       -0.2104
     37 H         136.9279  140.1662  160.9403 H       1  UNL1        0.2922
     38 C         140.6263  142.8687  168.5587 C.3     1  UNL1        0.2542
     39 O         141.0587  141.4417  168.3960 O.3     1  UNL1       -0.4561
@<TRIPOS>BOND
     1    38    39    1
     2    39    26    1
     3    26    27   ar
     4    27    28   ar
     5    28    29   ar
     6    29    30   ar
     7    30    31   ar
     8    31    32   ar
     9    32    33    1
    10    32    34   ar
    11    34    25    1
    12    25    24    1
    13    24     1    1
    14     1     2    1
    15     2     3    1
    16     3     4    1
    17     4     9    1
    18     9    11    1
    19    11    12    1
    20    12    13   ar
    21    13    14   ar
    22    14    15   ar
    23    15    16   ar
    24    16    17   ar
    25    16    18    1
    26    18    19   am
    27    19    20    2
    28    19    21    1
    29    21    22    1
    30     4     5    1
    31     5     6    1
    32     4     7    1
    33     7     8    1
    34    34    35   ar
    35    35    36   ar
    36    36    26   ar
    37    35    29   ar
    38     6     1    1
    39     8     1    1
    40    17    12   ar
    41    22    15    1
    42    33    37    1
    43     9    10    1
    44    18    23    1
@<TRIPOS>MOLECULE
*****
 39 44 0 0 0
SMALL
GASTEIGER

@<TRIPOS>ATOM
      1 C         138.1784  139.7642  162.8059 C.3     1  UNL1        0.0932
      2 C         138.2435  140.5001  161.5005 C.3     1  UNL1        0.0286
      3 C         138.0425  141.9861  161.4664 C.3     1  UNL1        0.0193
      4 C         137.7764  142.7364  162.7379 C.3     1  UNL1        0.0700
      5 C         137.7113  142.0005  164.0433 C.3     1  UNL1        0.0193
      6 C         137.9124  140.5143  164.0773 C.3     1  UNL1        0.0286
      7 C         137.8801  141.9224  162.8065 C.3     1  UNL1        0.1562
      8 O         138.0618  140.5787  162.8374 O.3     1  UNL1       -0.3572
      9 N         137.5754  144.2224  162.7038 N.3     1  UNL1       -0.2926
     10 H         137.0251  144.4641  163.5279 H       1  UNL1        0.1236
     11 C         138.7622  145.1397  162.6913 C.3     1  UNL1        0.1152
     12 C         140.0660  144.6715  162.1160 C.ar    1  UNL1        0.0765
     13 C         140.3552  144.8666  160.6571 C.ar    1  UNL1        0.0193
     14 C         141.6589  144.3984  160.0818 C.ar    1  UNL1        0.0411
     15 C         142.6735  143.7352  160.9653 C.ar    1  UNL1        0.1708
     16 C         142.3844  143.5401  162.4242 C.ar    1  UNL1        0.1682
     17 N         141.0806  144.0082  162.9996 N.ar    1  UNL1       -0.2304
     18 N         143.3990  142.8768  163.3077 N.am    1  UNL1       -0.2639
     19 C         144.7027  142.4086  162.7324 C.2     1  UNL1        0.2718
     20 O         145.7173  141.7453  163.6159 O.2     1  UNL1       -0.2707
     21 C         144.9919  142.6037  161.2735 C.3     1  UNL1        0.2898
     22 O         143.9773  143.2670  160.3899 O.3     1  UNL1       -0.4628
     23 H         143.2092  142.7487  164.2652 H       1  UNL1        0.1565
     24 C         138.3794  138.2781  162.8400 C.3     1  UNL1        0.0320
     25 C         139.2352  137.6613  163.9064 C.3     1  UNL1        0.0335
     26 C         140.1828  139.7755  167.7641 C.ar    1  UNL1        0.2250
     27 C         141.5662  140.2995  168.0119 C.ar    1  UNL1        0.0593
     28 C         142.6338  140.1188  166.9739 C.ar    1  UNL1        0.0254
     29 C         142.3180  139.4140  165.6880 C.ar    1  UNL1        0.0990
     30 N         143.3856  139.2333  164.6499 N.ar    1  UNL1       -0.2392
     31 C         143.0698  138.5286  163.3641 C.ar    1  UNL1        0.1351
     32 C         141.6863  138.0045  163.1162 C.ar    1  UNL1        0.1502
     33 O         141.3704  137.2998  161.8303 O.3     1  UNL1       -0.5042
     34 C         140.6187  138.1853  164.1542 C.ar    1  UNL1        0.0323
     35 C         140.9346  138.8900  165.4402 C.ar    1  UNL1        0.1009
     36 N         139.8670  139.0708  166.4782 N.ar    1  UNL1       -0.2104
     37 H         142.0373  137.1869  161.1818 H       1  UNL1        0.2922
     38 C         139.3291  140.9100  169.9399 C.3     1  UNL1        0.2542
     39 O         139.1152  139.9562  168.8022 O.3     1  UNL1       -0.4561
@<TRIPOS>BOND
     1    38    39    1
     2    39    26    1
     3    26    27   ar
     4    27    28   ar
     5    28    29   ar
     6    29    30   ar
     7    30    31   ar
     8    31    32   ar
     9    32    33    1
    10    32    34   ar
    11    34    25    1
    12    25    24    1
    13    24     1    1
    14     1     2    1
    15     2     3    1
    16     3     4    1
    17     4     9    1
    18     9    11    1
    19    11    12    1
    20    12    13   ar
    21    13    14   ar
    22    14    15   ar
    23    15    16   ar
    24    16    17   ar
    25    16    18    1
    26    18    19   am
    27    19    20    2
    28    19    21    1
    29    21    22    1
    30     4     5    1
    31     5     6    1
    32     4     7    1
    33     7     8    1
    34    34    35   ar
    35    35    36   ar
    36    36    26   ar
    37    35    29   ar
    38     6     1    1
    39     8     1    1
    40    17    12   ar
    41    22    15    1
    42    33    37    1
    43     9    10    1
    44    18    23    1
