@<TRIPOS>MOLECULE
*****
 34 38 0 0 0
SMALL
GASTEIGER

@<TRIPOS>ATOM
      1 C         142.8098  140.2417  165.1018 C.3     1  UNL1        0.1531
      2 C         141.8012  139.6718  164.1489 C.3     1  UNL1        0.1067
      3 N         142.1181  139.5844  162.6854 N.3     1  UNL1       -0.2665
      4 C         141.1095  139.0145  161.7324 C.3     1  UNL1        0.0940
      5 C         141.4264  138.9270  160.2689 C.3     1  UNL1        0.1107
      6 N         142.7517  139.4094  159.7583 N.am    1  UNL1       -0.2763
      7 C         143.0685  139.3218  158.2947 C.2     1  UNL1        0.2318
      8 O         144.3939  139.8042  157.7840 O.2     1  UNL1       -0.2744
      9 C         143.7602  139.9792  160.7112 C.3     1  UNL1        0.1119
     10 C         143.4434  140.0667  162.1748 C.3     1  UNL1        0.1075
     11 C         144.4520  140.6366  163.1277 C.3     1  UNL1        0.1601
     12 O         144.1351  140.7241  164.5912 O.3     1  UNL1       -0.3489
     13 C         141.4728  142.6911  166.2034 C.3     1  UNL1        0.0316
     14 C         141.8245  141.5539  167.1161 C.ar    1  UNL1       -0.0117
     15 C         142.4929  140.3292  166.5654 C.ar    1  UNL1        0.0027
     16 C         142.8446  139.1921  167.4782 C.ar    1  UNL1        0.0001
     17 C         142.5278  139.2795  168.9417 C.ar    1  UNL1        0.0301
     18 C         141.8594  140.5042  169.4925 C.ar    1  UNL1        0.1493
     19 F         141.5426  140.5917  170.9560 F       1  UNL1       -0.2035
     20 C         141.5077  141.6414  168.5797 C.ar    1  UNL1        0.0916
     21 C         140.8392  142.8660  169.1305 C.1     1  UNL1        0.1024
     22 N         140.1708  144.0907  169.6813 N.1     1  UNL1       -0.1908
     23 C         142.0600  138.7520  157.3418 C.3     1  UNL1        0.1325
     24 C         142.1555  137.3160  156.9190 C.ar    1  UNL1        0.0874
     25 C         141.2002  136.7690  155.8999 C.ar    1  UNL1        0.1157
     26 N         141.2957  135.3331  155.4772 N.ar    1  UNL1       -0.2223
     27 C         142.3463  134.4439  156.0735 C.ar    1  UNL1        0.1865
     28 C         143.3015  134.9908  157.0925 C.ar    1  UNL1        0.1373
     29 N         143.2061  136.4269  157.5153 N.ar    1  UNL1       -0.2429
     30 N         142.4418  133.0079  155.6507 N.ar    1  UNL1       -0.1693
     31 C         142.5919  132.5113  154.2433 C.ar    1  UNL1        0.2273
     32 N         142.6468  131.0127  154.2839 N.ar    1  UNL1       -0.1044
     33 N         142.5306  130.5833  155.7165 N.ar    1  UNL1       -0.0222
     34 N         142.4039  131.8164  156.5612 N.ar    1  UNL1       -0.0371
@<TRIPOS>BOND
     1    13    14    1
     2    14    15   ar
     3     1    15    1
     4     1     2    1
     5     2     3    1
     6     3     4    1
     7     4     5    1
     8     5     6    1
     9     6     7   am
    10     7     8    2
    11     7    23    1
    12    23    24    1
    13    24    25   ar
    14    25    26   ar
    15    26    27   ar
    16    27    30    1
    17    30    31   ar
    18    31    32   ar
    19    32    33   ar
    20    33    34   ar
    21    27    28   ar
    22    28    29   ar
    23     6     9    1
    24    10     9    1
    25    10    11    1
    26    11    12    1
    27    15    16   ar
    28    16    17   ar
    29    17    18   ar
    30    18    19    1
    31    18    20   ar
    32    20    21    1
    33    21    22    3
    34    20    14   ar
    35    12     1    1
    36    10     3    1
    37    29    24   ar
    38    34    30   ar
@<TRIPOS>MOLECULE
*****
 34 38 0 0 0
SMALL
GASTEIGER

@<TRIPOS>ATOM
      1 C         142.4799  140.6248  163.8154 C.3     1  UNL1        0.1531
      2 C         141.5451  139.8236  162.9585 C.3     1  UNL1        0.1067
      3 N         141.9048  139.5241  161.5335 N.3     1  UNL1       -0.2665
      4 C         140.9701  138.7228  160.6765 C.3     1  UNL1        0.0940
      5 C         141.3298  138.4232  159.2514 C.3     1  UNL1        0.1107
      6 N         142.6242  138.9249  158.6833 N.am    1  UNL1       -0.2763
      7 C         142.9839  138.6253  157.2581 C.2     1  UNL1        0.2318
      8 O         144.2784  139.1269  156.6900 O.2     1  UNL1       -0.2744
      9 C         143.5590  139.7261  159.5402 C.3     1  UNL1        0.1119
     10 C         143.1993  140.0257  160.9653 C.3     1  UNL1        0.1075
     11 C         144.1340  140.8269  161.8222 C.3     1  UNL1        0.1601
     12 O         143.7743  141.1265  163.2472 O.3     1  UNL1       -0.3489
     13 C         143.2856  138.7289  165.9963 C.3     1  UNL1        0.0316
     14 C         142.5231  139.9765  166.3309 C.ar    1  UNL1       -0.0117
     15 C         142.1202  140.9245  165.2405 C.ar    1  UNL1        0.0027
     16 C         141.3576  142.1720  165.5752 C.ar    1  UNL1        0.0001
     17 C         140.9979  142.4717  167.0002 C.ar    1  UNL1        0.0301
     18 C         141.4008  141.5237  168.0907 C.ar    1  UNL1        0.1493
     19 F         141.0411  141.8233  169.5158 F       1  UNL1       -0.2035
     20 C         142.1634  140.2761  167.7561 C.ar    1  UNL1        0.0916
     21 C         142.5663  139.3282  168.8465 C.1     1  UNL1        0.1024
     22 N         142.9691  138.3802  169.9369 N.1     1  UNL1       -0.1908
     23 C         142.0492  137.8241  156.4013 C.3     1  UNL1        0.1325
     24 C         142.1627  136.3289  156.3627 C.ar    1  UNL1        0.0874
     25 C         141.2829  135.5333  155.4444 C.ar    1  UNL1        0.1157
     26 N         141.3964  134.0382  155.4059 N.ar    1  UNL1       -0.2223
     27 C         142.3896  133.3385  156.2856 C.ar    1  UNL1        0.1865
     28 C         143.2694  134.1339  157.2038 C.ar    1  UNL1        0.1373
     29 N         143.1559  135.6292  157.2424 N.ar    1  UNL1       -0.2429
     30 N         142.5031  131.8433  156.2470 N.ar    1  UNL1       -0.1693
     31 C         143.3825  131.0029  157.1248 C.ar    1  UNL1        0.2273
     32 N         143.1800  129.5661  156.7442 N.ar    1  UNL1       -0.1044
     33 N         142.1754  129.5186  155.6312 N.ar    1  UNL1       -0.0222
     34 N         141.7571  130.9259  155.3240 N.ar    1  UNL1       -0.0371
@<TRIPOS>BOND
     1    13    14    1
     2    14    15   ar
     3     1    15    1
     4     1     2    1
     5     2     3    1
     6     3     4    1
     7     4     5    1
     8     5     6    1
     9     6     7   am
    10     7     8    2
    11     7    23    1
    12    23    24    1
    13    24    25   ar
    14    25    26   ar
    15    26    27   ar
    16    27    30    1
    17    30    31   ar
    18    31    32   ar
    19    32    33   ar
    20    33    34   ar
    21    27    28   ar
    22    28    29   ar
    23     6     9    1
    24    10     9    1
    25    10    11    1
    26    11    12    1
    27    15    16   ar
    28    16    17   ar
    29    17    18   ar
    30    18    19    1
    31    18    20   ar
    32    20    21    1
    33    21    22    3
    34    20    14   ar
    35    12     1    1
    36    10     3    1
    37    29    24   ar
    38    34    30   ar
@<TRIPOS>MOLECULE
*****
 34 38 0 0 0
SMALL
GASTEIGER

@<TRIPOS>ATOM
      1 C         138.5226  140.9191  157.5385 C.3     1  UNL1        0.1531
      2 C         137.7319  140.8330  158.8102 C.3     1  UNL1        0.1067
      3 N         138.2423  140.0111  159.9564 N.3     1  UNL1       -0.2665
      4 C         137.4516  139.9249  161.2282 C.3     1  UNL1        0.0940
      5 C         137.9620  139.1031  162.3745 C.3     1  UNL1        0.1107
      6 N         139.2631  138.3673  162.2490 N.am    1  UNL1       -0.2763
      7 C         139.7735  137.5454  163.3954 C.2     1  UNL1        0.2318
      8 O         141.0747  136.8097  163.2699 O.2     1  UNL1       -0.2744
      9 C         140.0538  138.4535  160.9773 C.3     1  UNL1        0.1119
     10 C         139.5434  139.2754  159.8310 C.3     1  UNL1        0.1075
     11 C         140.3341  139.3615  158.5593 C.3     1  UNL1        0.1601
     12 O         139.8237  140.1834  157.4130 O.3     1  UNL1       -0.3489
     13 C         139.2253  143.8295  157.3494 C.3     1  UNL1        0.0316
     14 C         138.3636  143.1962  156.2976 C.ar    1  UNL1       -0.0117
     15 C         138.0122  141.7410  156.3921 C.ar    1  UNL1        0.0027
     16 C         137.1504  141.1077  155.3404 C.ar    1  UNL1        0.0001
     17 C         136.6400  141.9295  154.1941 C.ar    1  UNL1        0.0301
     18 C         136.9914  143.3848  154.0995 C.ar    1  UNL1        0.1493
     19 F         136.4810  144.2066  152.9532 F       1  UNL1       -0.2035
     20 C         137.8531  144.0181  155.1512 C.ar    1  UNL1        0.0916
     21 C         138.2045  145.4733  155.0567 C.1     1  UNL1        0.1024
     22 N         138.5559  146.9284  154.9622 N.1     1  UNL1       -0.1908
     23 C         138.9828  137.4593  164.6671 C.3     1  UNL1        0.1325
     24 C         139.2806  138.3959  165.8002 C.ar    1  UNL1        0.0874
     25 C         138.2808  138.5805  166.9032 C.ar    1  UNL1        0.1157
     26 N         138.5786  139.5171  168.0363 N.ar    1  UNL1       -0.2223
     27 C         139.8760  140.2692  168.0665 C.ar    1  UNL1        0.1865
     28 C         140.8757  140.0847  166.9636 C.ar    1  UNL1        0.1373
     29 N         140.5780  139.1480  165.8304 N.ar    1  UNL1       -0.2429
     30 N         140.1738  141.2058  169.1997 N.ar    1  UNL1       -0.1693
     31 C         141.4592  141.9482  169.4155 C.ar    1  UNL1        0.2273
     32 N         141.3182  142.7658  170.6652 N.ar    1  UNL1       -0.1044
     33 N         139.9456  142.5287  171.2218 N.ar    1  UNL1       -0.0222
     34 N         139.2383  141.5646  170.3161 N.ar    1  UNL1       -0.0371
@<TRIPOS>BOND
     1    13    14    1
     2    14    15   ar
     3     1    15    1
     4     1     2    1
     5     2     3    1
     6     3     4    1
     7     4     5    1
     8     5     6    1
     9     6     7   am
    10     7     8    2
    11     7    23    1
    12    23    24    1
    13    24    25   ar
    14    25    26   ar
    15    26    27   ar
    16    27    30    1
    17    30    31   ar
    18    31    32   ar
    19    32    33   ar
    20    33    34   ar
    21    27    28   ar
    22    28    29   ar
    23     6     9    1
    24    10     9    1
    25    10    11    1
    26    11    12    1
    27    15    16   ar
    28    16    17   ar
    29    17    18   ar
    30    18    19    1
    31    18    20   ar
    32    20    21    1
    33    21    22    3
    34    20    14   ar
    35    12     1    1
    36    10     3    1
    37    29    24   ar
    38    34    30   ar
@<TRIPOS>MOLECULE
*****
 34 38 0 0 0
SMALL
GASTEIGER

@<TRIPOS>ATOM
      1 C         141.2326  140.2612  164.4840 C.3     1  UNL1        0.1531
      2 C         142.3213  139.4687  163.8233 C.3     1  UNL1        0.1067
      3 N         142.1947  139.0780  162.3807 N.3     1  UNL1       -0.2665
      4 C         143.2835  138.2854  161.7199 C.3     1  UNL1        0.0940
      5 C         143.1568  137.8947  160.2773 C.3     1  UNL1        0.1107
      6 N         141.9415  138.2966  159.4953 N.am    1  UNL1       -0.2763
      7 C         141.8149  137.9058  158.0526 C.2     1  UNL1        0.2318
      8 O         140.5996  138.3077  157.2706 O.2     1  UNL1       -0.2744
      9 C         140.8528  139.0891  160.1560 C.3     1  UNL1        0.1119
     10 C         140.9794  139.4798  161.5987 C.3     1  UNL1        0.1075
     11 C         139.8907  140.2724  162.2594 C.3     1  UNL1        0.1601
     12 O         140.0173  140.6631  163.7020 O.3     1  UNL1       -0.3489
     13 C         139.0938  139.4884  166.4406 C.3     1  UNL1        0.0316
     14 C         140.2898  140.2655  166.9050 C.ar    1  UNL1       -0.0117
     15 C         141.3592  140.6519  165.9267 C.ar    1  UNL1        0.0027
     16 C         142.5552  141.4291  166.3911 C.ar    1  UNL1        0.0001
     17 C         142.6818  141.8198  167.8337 C.ar    1  UNL1        0.0301
     18 C         141.6124  141.4334  168.8121 C.ar    1  UNL1        0.1493
     19 F         141.7390  141.8241  170.2547 F       1  UNL1       -0.2035
     20 C         140.4164  140.6563  168.3477 C.ar    1  UNL1        0.0916
     21 C         139.3470  140.2699  169.3260 C.1     1  UNL1        0.1024
     22 N         138.2776  139.8835  170.3042 N.1     1  UNL1       -0.1908
     23 C         142.9036  137.1133  157.3919 C.3     1  UNL1        0.1325
     24 C         142.6399  135.7070  156.9416 C.ar    1  UNL1        0.0874
     25 C         143.2646  134.5558  157.6727 C.ar    1  UNL1        0.1157
     26 N         143.0009  133.1495  157.2224 N.ar    1  UNL1       -0.2223
     27 C         142.1125  132.8944  156.0410 C.ar    1  UNL1        0.1865
     28 C         141.4878  134.0456  155.3099 C.ar    1  UNL1        0.1373
     29 N         141.7515  135.4519  155.7602 N.ar    1  UNL1       -0.2429
     30 N         141.8488  131.4881  155.5907 N.ar    1  UNL1       -0.1693
     31 C         142.6487  130.2767  155.9684 C.ar    1  UNL1        0.2273
     32 N         142.0331  129.0862  155.2948 N.ar    1  UNL1       -0.1044
     33 N         140.8526  129.5618  154.5007 N.ar    1  UNL1       -0.0222
     34 N         140.7387  131.0463  154.6836 N.ar    1  UNL1       -0.0371
@<TRIPOS>BOND
     1    13    14    1
     2    14    15   ar
     3     1    15    1
     4     1     2    1
     5     2     3    1
     6     3     4    1
     7     4     5    1
     8     5     6    1
     9     6     7   am
    10     7     8    2
    11     7    23    1
    12    23    24    1
    13    24    25   ar
    14    25    26   ar
    15    26    27   ar
    16    27    30    1
    17    30    31   ar
    18    31    32   ar
    19    32    33   ar
    20    33    34   ar
    21    27    28   ar
    22    28    29   ar
    23     6     9    1
    24    10     9    1
    25    10    11    1
    26    11    12    1
    27    15    16   ar
    28    16    17   ar
    29    17    18   ar
    30    18    19    1
    31    18    20   ar
    32    20    21    1
    33    21    22    3
    34    20    14   ar
    35    12     1    1
    36    10     3    1
    37    29    24   ar
    38    34    30   ar
@<TRIPOS>MOLECULE
*****
 34 38 0 0 0
SMALL
GASTEIGER

@<TRIPOS>ATOM
      1 C         143.3879  141.5842  158.2536 C.3     1  UNL1        0.1531
      2 C         143.3669  140.5799  159.3675 C.3     1  UNL1        0.1067
      3 N         142.1592  140.4632  160.2494 N.3     1  UNL1       -0.2665
      4 C         142.1382  139.4589  161.3634 C.3     1  UNL1        0.0940
      5 C         140.9305  139.3422  162.2453 C.3     1  UNL1        0.1107
      6 N         139.7438  140.2299  162.0133 N.am    1  UNL1       -0.2763
      7 C         138.5360  140.1131  162.8953 C.2     1  UNL1        0.2318
      8 O         137.3493  141.0008  162.6632 O.2     1  UNL1       -0.2744
      9 C         139.7648  141.2342  160.8994 C.3     1  UNL1        0.1119
     10 C         140.9725  141.3509  160.0174 C.3     1  UNL1        0.1075
     11 C         140.9935  142.3552  158.9035 C.3     1  UNL1        0.1601
     12 O         142.2012  142.4719  158.0216 O.3     1  UNL1       -0.3489
     13 C         143.4090  140.2695  155.5571 C.3     1  UNL1        0.0316
     14 C         144.6062  141.0436  156.0234 C.ar    1  UNL1       -0.0117
     15 C         144.5957  141.7009  157.3716 C.ar    1  UNL1        0.0027
     16 C         145.7929  142.4750  157.8380 C.ar    1  UNL1        0.0001
     17 C         147.0006  142.5917  156.9561 C.ar    1  UNL1        0.0301
     18 C         147.0112  141.9344  155.6078 C.ar    1  UNL1        0.1493
     19 F         148.2189  142.0511  154.7259 F       1  UNL1       -0.2035
     20 C         145.8139  141.1603  155.1414 C.ar    1  UNL1        0.0916
     21 C         145.8244  140.5030  153.7932 C.1     1  UNL1        0.1024
     22 N         145.8349  139.8456  152.4450 N.1     1  UNL1       -0.1908
     23 C         138.5150  139.1088  164.0092 C.3     1  UNL1        0.1325
     24 C         138.8684  139.5295  165.4049 C.ar    1  UNL1        0.0874
     25 C         138.2017  138.8731  166.5775 C.ar    1  UNL1        0.1157
     26 N         138.5550  139.2938  167.9733 N.ar    1  UNL1       -0.2223
     27 C         139.5750  140.3707  168.1965 C.ar    1  UNL1        0.1865
     28 C         140.2417  141.0270  167.0241 C.ar    1  UNL1        0.1373
     29 N         139.8883  140.6064  165.6282 N.ar    1  UNL1       -0.2429
     30 N         139.9283  140.7913  169.5923 N.ar    1  UNL1       -0.1693
     31 C         140.1271  142.2011  170.0647 C.ar    1  UNL1        0.2273
     32 N         140.4666  142.1571  171.5252 N.ar    1  UNL1       -0.1044
     33 N         140.4776  140.7201  171.9554 N.ar    1  UNL1       -0.0222
     34 N         140.1449  139.8760  170.7609 N.ar    1  UNL1       -0.0371
@<TRIPOS>BOND
     1    13    14    1
     2    14    15   ar
     3     1    15    1
     4     1     2    1
     5     2     3    1
     6     3     4    1
     7     4     5    1
     8     5     6    1
     9     6     7   am
    10     7     8    2
    11     7    23    1
    12    23    24    1
    13    24    25   ar
    14    25    26   ar
    15    26    27   ar
    16    27    30    1
    17    30    31   ar
    18    31    32   ar
    19    32    33   ar
    20    33    34   ar
    21    27    28   ar
    22    28    29   ar
    23     6     9    1
    24    10     9    1
    25    10    11    1
    26    11    12    1
    27    15    16   ar
    28    16    17   ar
    29    17    18   ar
    30    18    19    1
    31    18    20   ar
    32    20    21    1
    33    21    22    3
    34    20    14   ar
    35    12     1    1
    36    10     3    1
    37    29    24   ar
    38    34    30   ar
@<TRIPOS>MOLECULE
*****
 34 38 0 0 0
SMALL
GASTEIGER

@<TRIPOS>ATOM
      1 C         140.7208  140.3673  165.4961 C.3     1  UNL1        0.1531
      2 C         141.7890  140.2861  164.4463 C.3     1  UNL1        0.1067
      3 N         141.4182  140.0137  163.0186 N.3     1  UNL1       -0.2665
      4 C         142.4864  139.9325  161.9686 C.3     1  UNL1        0.0940
      5 C         142.1156  139.6601  160.5410 C.3     1  UNL1        0.1107
      6 N         140.6766  139.4688  160.1632 N.am    1  UNL1       -0.2763
      7 C         140.3058  139.1964  158.7355 C.2     1  UNL1        0.2318
      8 O         138.8668  139.0051  158.3577 O.2     1  UNL1       -0.2744
      9 C         139.6084  139.5500  161.2131 C.3     1  UNL1        0.1119
     10 C         139.9792  139.8225  162.6408 C.3     1  UNL1        0.1075
     11 C         138.9110  139.9037  163.6907 C.3     1  UNL1        0.1601
     12 O         139.2818  140.1761  165.1184 O.3     1  UNL1       -0.3489
     13 C         139.9131  142.9513  166.7889 C.3     1  UNL1        0.0316
     14 C         140.6877  141.9317  167.5702 C.ar    1  UNL1       -0.0117
     15 C         141.0916  140.6398  166.9239 C.ar    1  UNL1        0.0027
     16 C         141.8661  139.6202  167.7052 C.ar    1  UNL1        0.0001
     17 C         142.2369  139.8926  169.1329 C.ar    1  UNL1        0.0301
     18 C         141.8331  141.1846  169.7793 C.ar    1  UNL1        0.1493
     19 F         142.2039  141.4570  171.2070 F       1  UNL1       -0.2035
     20 C         141.0585  142.2042  168.9980 C.ar    1  UNL1        0.0916
     21 C         140.6547  143.4961  169.6443 C.1     1  UNL1        0.1024
     22 N         140.2509  144.7880  170.2906 N.1     1  UNL1       -0.1908
     23 C         141.3740  139.1152  157.6856 C.3     1  UNL1        0.1325
     24 C         141.7408  137.7883  157.0899 C.ar    1  UNL1        0.0874
     25 C         140.8072  137.1138  156.1288 C.ar    1  UNL1        0.1157
     26 N         141.1739  135.7870  155.5332 N.ar    1  UNL1       -0.2223
     27 C         142.4743  135.1345  155.8985 C.ar    1  UNL1        0.1865
     28 C         143.4078  135.8089  156.8595 C.ar    1  UNL1        0.1373
     29 N         143.0411  137.1359  157.4552 N.ar    1  UNL1       -0.2429
     30 N         142.8410  133.8077  155.3028 N.ar    1  UNL1       -0.1693
     31 C         142.3624  133.2693  153.9871 C.ar    1  UNL1        0.2273
     32 N         142.9764  131.9150  153.7894 N.ar    1  UNL1       -0.1044
     33 N         143.8346  131.6164  154.9829 N.ar    1  UNL1       -0.0222
     34 N         143.7509  132.7861  155.9182 N.ar    1  UNL1       -0.0371
@<TRIPOS>BOND
     1    13    14    1
     2    14    15   ar
     3     1    15    1
     4     1     2    1
     5     2     3    1
     6     3     4    1
     7     4     5    1
     8     5     6    1
     9     6     7   am
    10     7     8    2
    11     7    23    1
    12    23    24    1
    13    24    25   ar
    14    25    26   ar
    15    26    27   ar
    16    27    30    1
    17    30    31   ar
    18    31    32   ar
    19    32    33   ar
    20    33    34   ar
    21    27    28   ar
    22    28    29   ar
    23     6     9    1
    24    10     9    1
    25    10    11    1
    26    11    12    1
    27    15    16   ar
    28    16    17   ar
    29    17    18   ar
    30    18    19    1
    31    18    20   ar
    32    20    21    1
    33    21    22    3
    34    20    14   ar
    35    12     1    1
    36    10     3    1
    37    29    24   ar
    38    34    30   ar
@<TRIPOS>MOLECULE
*****
 34 38 0 0 0
SMALL
GASTEIGER

@<TRIPOS>ATOM
      1 C         140.5995  141.9623  163.1716 C.3     1  UNL1        0.1531
      2 C         139.9089  140.8523  162.4363 C.3     1  UNL1        0.1067
      3 N         139.3198  141.1038  161.0800 N.3     1  UNL1       -0.2665
      4 C         138.6291  139.9938  160.3446 C.3     1  UNL1        0.0940
      5 C         138.0400  140.2453  158.9883 C.3     1  UNL1        0.1107
      6 N         138.1415  141.6070  158.3673 N.am    1  UNL1       -0.2763
      7 C         137.5523  141.8585  157.0109 C.2     1  UNL1        0.2318
      8 O         137.6538  143.2202  156.3899 O.2     1  UNL1       -0.2744
      9 C         138.8321  142.7170  159.1026 C.3     1  UNL1        0.1119
     10 C         139.4213  142.4655  160.4590 C.3     1  UNL1        0.1075
     11 C         140.1119  143.5756  161.1943 C.3     1  UNL1        0.1601
     12 O         140.7010  143.3240  162.5506 O.3     1  UNL1       -0.3489
     13 C         139.5055  143.3927  165.5710 C.3     1  UNL1        0.0316
     14 C         140.6417  142.4259  165.7276 C.ar    1  UNL1       -0.0117
     15 C         141.1887  141.7108  164.5280 C.ar    1  UNL1        0.0027
     16 C         142.3249  140.7441  164.6846 C.ar    1  UNL1        0.0001
     17 C         142.9141  140.4925  166.0409 C.ar    1  UNL1        0.0301
     18 C         142.3670  141.2077  167.2406 C.ar    1  UNL1        0.1493
     19 F         142.9562  140.9561  168.5969 F       1  UNL1       -0.2035
     20 C         141.2309  142.1744  167.0840 C.ar    1  UNL1        0.0916
     21 C         140.6838  142.8896  168.2837 C.1     1  UNL1        0.1024
     22 N         140.1368  143.6047  169.4834 N.1     1  UNL1       -0.1908
     23 C         136.8617  140.7485  156.2756 C.3     1  UNL1        0.1325
     24 C         135.3636  140.6752  156.2635 C.ar    1  UNL1        0.0874
     25 C         134.5839  141.4324  155.2297 C.ar    1  UNL1        0.1157
     26 N         133.0857  141.3591  155.2177 N.ar    1  UNL1       -0.2223
     27 C         132.3672  140.5286  156.2394 C.ar    1  UNL1        0.1865
     28 C         133.1468  139.7713  157.2732 C.ar    1  UNL1        0.1373
     29 N         134.6450  139.8446  157.2853 N.ar    1  UNL1       -0.2429
     30 N         130.8691  140.4553  156.2273 N.ar    1  UNL1       -0.1693
     31 C         130.0308  139.4299  156.9315 C.ar    1  UNL1        0.2273
     32 N         128.5897  139.7354  156.6484 N.ar    1  UNL1       -0.1044
     33 N         128.5374  140.9496  155.7691 N.ar    1  UNL1       -0.0222
     34 N         129.9461  141.3945  155.5089 N.ar    1  UNL1       -0.0371
@<TRIPOS>BOND
     1    13    14    1
     2    14    15   ar
     3     1    15    1
     4     1     2    1
     5     2     3    1
     6     3     4    1
     7     4     5    1
     8     5     6    1
     9     6     7   am
    10     7     8    2
    11     7    23    1
    12    23    24    1
    13    24    25   ar
    14    25    26   ar
    15    26    27   ar
    16    27    30    1
    17    30    31   ar
    18    31    32   ar
    19    32    33   ar
    20    33    34   ar
    21    27    28   ar
    22    28    29   ar
    23     6     9    1
    24    10     9    1
    25    10    11    1
    26    11    12    1
    27    15    16   ar
    28    16    17   ar
    29    17    18   ar
    30    18    19    1
    31    18    20   ar
    32    20    21    1
    33    21    22    3
    34    20    14   ar
    35    12     1    1
    36    10     3    1
    37    29    24   ar
    38    34    30   ar
@<TRIPOS>MOLECULE
*****
 34 38 0 0 0
SMALL
GASTEIGER

@<TRIPOS>ATOM
      1 C         142.3519  142.4457  165.8851 C.3     1  UNL1        0.1531
      2 C         143.2713  141.6342  165.0213 C.3     1  UNL1        0.1067
      3 N         143.3970  141.9463  163.5596 N.3     1  UNL1       -0.2665
      4 C         144.3165  141.1348  162.6958 C.3     1  UNL1        0.0940
      5 C         144.4422  141.4469  161.2340 C.3     1  UNL1        0.1107
      6 N         143.6486  142.5706  160.6360 N.am    1  UNL1       -0.2763
      7 C         143.7744  142.8827  159.1742 C.2     1  UNL1        0.2318
      8 O         142.9808  144.0063  158.5762 O.2     1  UNL1       -0.2744
      9 C         142.7292  143.3821  161.4998 C.3     1  UNL1        0.1119
     10 C         142.6034  143.0700  162.9616 C.3     1  UNL1        0.1075
     11 C         141.6840  143.8815  163.8254 C.3     1  UNL1        0.1601
     12 O         141.5583  143.5694  165.2871 O.3     1  UNL1       -0.3489
     13 C         139.8561  141.1528  166.9336 C.3     1  UNL1        0.0316
     14 C         140.9782  141.4872  167.8711 C.ar    1  UNL1       -0.0117
     15 C         142.2261  142.1336  167.3469 C.ar    1  UNL1        0.0027
     16 C         143.3482  142.4680  168.2845 C.ar    1  UNL1        0.0001
     17 C         143.2225  142.1559  169.7462 C.ar    1  UNL1        0.0301
     18 C         141.9745  141.5094  170.2705 C.ar    1  UNL1        0.1493
     19 F         141.8488  141.1974  171.7322 F       1  UNL1       -0.2035
     20 C         140.8524  141.1751  169.3329 C.ar    1  UNL1        0.0916
     21 C         139.6045  140.5286  169.8571 C.1     1  UNL1        0.1024
     22 N         138.3566  139.8822  170.3813 N.1     1  UNL1       -0.1908
     23 C         144.6938  142.0711  158.3105 C.3     1  UNL1        0.1325
     24 C         144.1995  140.8094  157.6675 C.ar    1  UNL1        0.0874
     25 C         143.6857  139.6856  158.5180 C.ar    1  UNL1        0.1157
     26 N         143.1914  138.4238  157.8749 N.ar    1  UNL1       -0.2223
     27 C         143.2108  138.2857  156.3814 C.ar    1  UNL1        0.1865
     28 C         143.7246  139.4094  155.5310 C.ar    1  UNL1        0.1373
     29 N         144.2189  140.6712  156.1740 N.ar    1  UNL1       -0.2429
     30 N         142.7165  137.0239  155.7384 N.ar    1  UNL1       -0.1693
     31 C         142.2520  135.7917  156.4567 C.ar    1  UNL1        0.2273
     32 N         141.8483  134.7790  155.4264 N.ar    1  UNL1       -0.1044
     33 N         142.0634  135.3853  154.0713 N.ar    1  UNL1       -0.0222
     34 N         142.5999  136.7727  154.2642 N.ar    1  UNL1       -0.0371
@<TRIPOS>BOND
     1    13    14    1
     2    14    15   ar
     3     1    15    1
     4     1     2    1
     5     2     3    1
     6     3     4    1
     7     4     5    1
     8     5     6    1
     9     6     7   am
    10     7     8    2
    11     7    23    1
    12    23    24    1
    13    24    25   ar
    14    25    26   ar
    15    26    27   ar
    16    27    30    1
    17    30    31   ar
    18    31    32   ar
    19    32    33   ar
    20    33    34   ar
    21    27    28   ar
    22    28    29   ar
    23     6     9    1
    24    10     9    1
    25    10    11    1
    26    11    12    1
    27    15    16   ar
    28    16    17   ar
    29    17    18   ar
    30    18    19    1
    31    18    20   ar
    32    20    21    1
    33    21    22    3
    34    20    14   ar
    35    12     1    1
    36    10     3    1
    37    29    24   ar
    38    34    30   ar
@<TRIPOS>MOLECULE
*****
 34 38 0 0 0
SMALL
GASTEIGER

@<TRIPOS>ATOM
      1 C         142.6075  140.2443  165.7806 C.3     1  UNL1        0.1531
      2 C         141.7056  139.4164  164.9140 C.3     1  UNL1        0.1067
      3 N         142.0025  139.2650  163.4516 N.3     1  UNL1       -0.2665
      4 C         141.1005  138.4371  162.5849 C.3     1  UNL1        0.0940
      5 C         141.3974  138.2857  161.1224 C.3     1  UNL1        0.1107
      6 N         142.5962  138.9622  160.5265 N.am    1  UNL1       -0.2763
      7 C         142.8931  138.8108  159.0640 C.2     1  UNL1        0.2318
      8 O         144.0920  139.4873  158.4681 O.2     1  UNL1       -0.2744
      9 C         143.4982  139.7901  161.3931 C.3     1  UNL1        0.1119
     10 C         143.2013  139.9415  162.8557 C.3     1  UNL1        0.1075
     11 C         144.1033  140.7694  163.7223 C.3     1  UNL1        0.1601
     12 O         143.8064  140.9208  165.1847 O.3     1  UNL1       -0.3489
     13 C         141.2498  142.7231  166.7869 C.3     1  UNL1        0.0316
     14 C         141.6318  141.6351  167.7463 C.ar    1  UNL1       -0.0117
     15 C         142.3107  140.3958  167.2432 C.ar    1  UNL1        0.0027
     16 C         142.6927  139.3078  168.2026 C.ar    1  UNL1        0.0001
     17 C         142.3958  139.4592  169.6651 C.ar    1  UNL1        0.0301
     18 C         141.7170  140.6986  170.1682 C.ar    1  UNL1        0.1493
     19 F         141.4201  140.8500  171.6307 F       1  UNL1       -0.2035
     20 C         141.3349  141.7866  169.2089 C.ar    1  UNL1        0.0916
     21 C         140.6561  143.0259  169.7119 C.1     1  UNL1        0.1024
     22 N         139.9772  144.2652  170.2150 N.1     1  UNL1       -0.1908
     23 C         141.9912  137.9829  158.1974 C.3     1  UNL1        0.1325
     24 C         140.8027  138.6133  157.5341 C.ar    1  UNL1        0.0874
     25 C         139.8967  137.7838  156.6730 C.ar    1  UNL1        0.1157
     26 N         138.7082  138.4142  156.0097 N.ar    1  UNL1       -0.2223
     27 C         138.4256  139.8740  156.2074 C.ar    1  UNL1        0.1865
     28 C         139.3314  140.7034  157.0685 C.ar    1  UNL1        0.1373
     29 N         140.5200  140.0731  157.7318 N.ar    1  UNL1       -0.2429
     30 N         137.2371  140.5044  155.5441 N.ar    1  UNL1       -0.1693
     31 C         137.2720  141.6501  154.5766 C.ar    1  UNL1        0.2273
     32 N         135.8613  141.9536  154.1664 N.ar    1  UNL1       -0.1044
     33 N         134.9546  140.9954  154.8804 N.ar    1  UNL1       -0.0222
     34 N         135.8048  140.0997  155.7319 N.ar    1  UNL1       -0.0371
@<TRIPOS>BOND
     1    13    14    1
     2    14    15   ar
     3     1    15    1
     4     1     2    1
     5     2     3    1
     6     3     4    1
     7     4     5    1
     8     5     6    1
     9     6     7   am
    10     7     8    2
    11     7    23    1
    12    23    24    1
    13    24    25   ar
    14    25    26   ar
    15    26    27   ar
    16    27    30    1
    17    30    31   ar
    18    31    32   ar
    19    32    33   ar
    20    33    34   ar
    21    27    28   ar
    22    28    29   ar
    23     6     9    1
    24    10     9    1
    25    10    11    1
    26    11    12    1
    27    15    16   ar
    28    16    17   ar
    29    17    18   ar
    30    18    19    1
    31    18    20   ar
    32    20    21    1
    33    21    22    3
    34    20    14   ar
    35    12     1    1
    36    10     3    1
    37    29    24   ar
    38    34    30   ar
