@<TRIPOS>MOLECULE
*****
 29 32 0 0 0
SMALL
GASTEIGER

@<TRIPOS>ATOM
      1 N         141.3870  143.8404  163.5487 N.3     1  UNL1       -0.2641
      2 C         140.2970  143.2465  164.3908 C.3     1  UNL1        0.0730
      3 C         140.6378  142.5378  165.6681 C.3     1  UNL1        0.0245
      4 C         142.0687  142.4230  166.1033 C.3     1  UNL1        0.0577
      5 C         143.1587  143.0169  165.2613 C.3     1  UNL1        0.1808
      6 F         144.5896  142.9020  165.6966 F       1  UNL1       -0.2354
      7 C         142.8179  143.7256  163.9840 C.3     1  UNL1        0.1084
      8 C         142.4095  141.7142  167.3807 C.ar    1  UNL1       -0.0196
      9 C         142.9869  142.4814  168.5331 C.ar    1  UNL1       -0.0011
     10 C         143.3277  141.7726  169.8104 C.ar    1  UNL1        0.0363
     11 C         143.0910  140.2967  169.9353 C.ar    1  UNL1        0.1337
     12 O         143.4318  139.5879  171.2126 O.3     1  UNL1       -0.5055
     13 C         142.5136  139.5295  168.7829 C.ar    1  UNL1        0.0363
     14 C         142.1728  140.2383  167.5056 C.ar    1  UNL1       -0.0011
     15 H         143.7925  140.0671  171.9325 H       1  UNL1        0.2922
     16 O         142.8168  143.3693  160.6533 O.2     1  UNL1       -0.2734
     17 C         141.7035  144.3326  160.9405 C.2     1  UNL1        0.2404
     18 C         141.0462  144.5491  162.2714 C.3     1  UNL1        0.1368
     19 C         139.9884  145.5988  162.1006 C.3     1  UNL1        0.0468
     20 C         139.9919  146.0310  160.6643 C.3     1  UNL1        0.0957
     21 N         141.0519  145.2484  159.9472 N.am    1  UNL1       -0.2743
     22 C         141.3992  145.3618  158.4924 C.3     1  UNL1        0.1202
     23 C         140.3147  145.3200  157.4569 C.ar    1  UNL1       -0.0022
     24 C         139.8819  146.5829  156.7728 C.ar    1  UNL1       -0.0003
     25 C         138.7975  146.5411  155.7374 C.ar    1  UNL1        0.0294
     26 C         138.1458  145.2366  155.3860 C.ar    1  UNL1        0.1401
     27 F         137.0614  145.1948  154.3506 F       1  UNL1       -0.2042
     28 C         138.5786  143.9737  156.0701 C.ar    1  UNL1        0.0294
     29 C         139.6631  144.0155  157.1056 C.ar    1  UNL1       -0.0003
@<TRIPOS>BOND
     1    16    17    2
     2    17    18    1
     3    18     1    1
     4     1     2    1
     5     2     3    1
     6     3     4    1
     7     4     8    1
     8     8     9   ar
     9     9    10   ar
    10    10    11   ar
    11    11    12    1
    12    11    13   ar
    13    13    14   ar
    14     4     5    1
    15     5     6    1
    16     5     7    1
    17    18    19    1
    18    19    20    1
    19    20    21    1
    20    21    22    1
    21    22    23    1
    22    23    24   ar
    23    24    25   ar
    24    25    26   ar
    25    26    27    1
    26    26    28   ar
    27    28    29   ar
    28    21    17   am
    29    29    23   ar
    30     7     1    1
    31    14     8   ar
    32    12    15    1
@<TRIPOS>MOLECULE
*****
 29 32 0 0 0
SMALL
GASTEIGER

@<TRIPOS>ATOM
      1 N         141.4153  143.8315  163.6083 N.3     1  UNL1       -0.2641
      2 C         142.8498  143.6951  164.0246 C.3     1  UNL1        0.0730
      3 C         143.1967  142.9813  165.2974 C.3     1  UNL1        0.0245
      4 C         142.1091  142.4038  166.1538 C.3     1  UNL1        0.0577
      5 C         140.6745  142.5402  165.7375 C.3     1  UNL1        0.1808
      6 F         139.5869  141.9627  166.5940 F       1  UNL1       -0.2354
      7 C         140.3276  143.2540  164.4647 C.3     1  UNL1        0.1084
      8 C         142.4561  141.6899  167.4267 C.ar    1  UNL1       -0.0196
      9 C         142.2064  140.2162  167.5521 C.ar    1  UNL1       -0.0011
     10 C         142.5534  139.5024  168.8250 C.ar    1  UNL1        0.0363
     11 C         143.1500  140.2623  169.9724 C.ar    1  UNL1        0.1337
     12 O         143.4970  139.5485  171.2452 O.3     1  UNL1       -0.5055
     13 C         143.3997  141.7361  169.8469 C.ar    1  UNL1        0.0363
     14 C         143.0527  142.4499  168.5741 C.ar    1  UNL1       -0.0011
     15 H         143.3410  138.6279  171.3235 H       1  UNL1        0.2922
     16 O         142.8797  143.4248  160.7204 O.2     1  UNL1       -0.2734
     17 C         141.7414  144.3584  161.0080 C.2     1  UNL1        0.2404
     18 C         141.0683  144.5453  162.3354 C.3     1  UNL1        0.1368
     19 C         139.9873  145.5714  162.1665 C.3     1  UNL1        0.0468
     20 C         139.9923  146.0186  160.7347 C.3     1  UNL1        0.0957
     21 N         141.0765  145.2689  160.0187 N.am    1  UNL1       -0.2743
     22 C         141.4330  145.4057  158.5682 C.3     1  UNL1        0.1202
     23 C         140.3554  145.3783  157.5251 C.ar    1  UNL1       -0.0022
     24 C         139.6825  144.0840  157.1757 C.ar    1  UNL1       -0.0003
     25 C         138.6049  144.0566  156.1327 C.ar    1  UNL1        0.0294
     26 C         138.2001  145.3235  155.4391 C.ar    1  UNL1        0.1401
     27 F         137.1225  145.2961  154.3960 F       1  UNL1       -0.2042
     28 C         138.8730  146.6179  155.7884 C.ar    1  UNL1        0.0294
     29 C         139.9506  146.6452  156.8315 C.ar    1  UNL1       -0.0003
@<TRIPOS>BOND
     1    16    17    2
     2    17    18    1
     3    18     1    1
     4     1     2    1
     5     2     3    1
     6     3     4    1
     7     4     8    1
     8     8     9   ar
     9     9    10   ar
    10    10    11   ar
    11    11    12    1
    12    11    13   ar
    13    13    14   ar
    14     4     5    1
    15     5     6    1
    16     5     7    1
    17    18    19    1
    18    19    20    1
    19    20    21    1
    20    21    22    1
    21    22    23    1
    22    23    24   ar
    23    24    25   ar
    24    25    26   ar
    25    26    27    1
    26    26    28   ar
    27    28    29   ar
    28    21    17   am
    29    29    23   ar
    30     7     1    1
    31    14     8   ar
    32    12    15    1
@<TRIPOS>MOLECULE
*****
 29 32 0 0 0
SMALL
GASTEIGER

@<TRIPOS>ATOM
      1 N         141.2447  138.7933  162.2517 N.3     1  UNL1       -0.2641
      2 C         141.0388  137.6432  163.1923 C.3     1  UNL1        0.0730
      3 C         141.0244  137.8791  164.6735 C.3     1  UNL1        0.0245
      4 C         141.2157  139.2651  165.2141 C.3     1  UNL1        0.0577
      5 C         141.4216  140.4152  164.2735 C.3     1  UNL1        0.1808
      6 F         141.6129  141.8013  164.8142 F       1  UNL1       -0.2354
      7 C         141.4360  140.1793  162.7923 C.3     1  UNL1        0.1084
      8 C         141.2012  139.5010  166.6955 C.ar    1  UNL1       -0.0196
      9 C         139.9240  139.8863  167.3811 C.ar    1  UNL1       -0.0011
     10 C         139.9095  140.1221  168.8624 C.ar    1  UNL1        0.0363
     11 C         141.1723  139.9727  169.6580 C.ar    1  UNL1        0.1337
     12 O         141.1579  140.2085  171.1393 O.3     1  UNL1       -0.5055
     13 C         142.4496  139.5873  168.9723 C.ar    1  UNL1        0.0363
     14 C         142.4640  139.3515  167.4911 C.ar    1  UNL1       -0.0011
     15 H         140.3600  140.4492  171.5676 H       1  UNL1        0.2922
     16 O         143.7076  137.5105  160.5376 O.2     1  UNL1       -0.2734
     17 C         142.3913  137.9678  159.9825 C.2     1  UNL1        0.2404
     18 C         141.2592  138.5574  160.7704 C.3     1  UNL1        0.1368
     19 C         140.1441  138.8698  159.8169 C.3     1  UNL1        0.0468
     20 C         140.5871  138.4732  158.4397 C.3     1  UNL1        0.0957
     21 N         141.9759  137.9157  158.5421 N.am    1  UNL1       -0.2743
     22 C         142.8040  137.3972  157.4039 C.3     1  UNL1        0.1202
     23 C         142.5459  136.0265  156.8521 C.ar    1  UNL1       -0.0022
     24 C         143.2973  134.8464  157.3934 C.ar    1  UNL1       -0.0003
     25 C         143.0392  133.4757  156.8416 C.ar    1  UNL1        0.0294
     26 C         142.0297  133.2851  155.7486 C.ar    1  UNL1        0.1401
     27 F         141.7716  131.9143  155.1968 F       1  UNL1       -0.2042
     28 C         141.2783  134.4651  155.2073 C.ar    1  UNL1        0.0294
     29 C         141.5364  135.8358  155.7591 C.ar    1  UNL1       -0.0003
@<TRIPOS>BOND
     1    16    17    2
     2    17    18    1
     3    18     1    1
     4     1     2    1
     5     2     3    1
     6     3     4    1
     7     4     8    1
     8     8     9   ar
     9     9    10   ar
    10    10    11   ar
    11    11    12    1
    12    11    13   ar
    13    13    14   ar
    14     4     5    1
    15     5     6    1
    16     5     7    1
    17    18    19    1
    18    19    20    1
    19    20    21    1
    20    21    22    1
    21    22    23    1
    22    23    24   ar
    23    24    25   ar
    24    25    26   ar
    25    26    27    1
    26    26    28   ar
    27    28    29   ar
    28    21    17   am
    29    29    23   ar
    30     7     1    1
    31    14     8   ar
    32    12    15    1
@<TRIPOS>MOLECULE
*****
 29 32 0 0 0
SMALL
GASTEIGER

@<TRIPOS>ATOM
      1 N         140.0464  139.8596  163.3532 N.3     1  UNL1       -0.2641
      2 C         139.0498  140.8565  163.8658 C.3     1  UNL1        0.0730
      3 C         139.0802  141.2747  165.3060 C.3     1  UNL1        0.0245
      4 C         140.1072  140.6959  166.2335 C.3     1  UNL1        0.0577
      5 C         141.1038  139.6990  165.7209 C.3     1  UNL1        0.1808
      6 F         142.1308  139.1202  166.6484 F       1  UNL1       -0.2354
      7 C         141.0734  139.2808  164.2807 C.3     1  UNL1        0.1084
      8 C         140.1376  141.1141  167.6738 C.ar    1  UNL1       -0.0196
      9 C         139.6612  140.1713  168.7387 C.ar    1  UNL1       -0.0011
     10 C         139.6915  140.5895  170.1790 C.ar    1  UNL1        0.0363
     11 C         140.1983  141.9506  170.5542 C.ar    1  UNL1        0.1337
     12 O         140.2286  142.3688  171.9944 O.3     1  UNL1       -0.5055
     13 C         140.6747  142.8934  169.4892 C.ar    1  UNL1        0.0363
     14 C         140.6443  142.4752  168.0490 C.ar    1  UNL1       -0.0011
     15 H         139.9311  141.7799  172.6596 H       1  UNL1        0.2922
     16 O         142.3410  140.4968  161.1220 O.2     1  UNL1       -0.2734
     17 C         141.0708  139.7343  160.8874 C.2     1  UNL1        0.2404
     18 C         140.0161  139.4413  161.9129 C.3     1  UNL1        0.1368
     19 C         138.9257  138.6568  161.2454 C.3     1  UNL1        0.0468
     20 C         139.3065  138.4648  159.8074 C.3     1  UNL1        0.0957
     21 N         140.6323  139.1308  159.5860 N.am    1  UNL1       -0.2743
     22 C         141.3870  139.1839  158.2908 C.3     1  UNL1        0.1202
     23 C         141.5484  137.9419  157.4654 C.ar    1  UNL1       -0.0022
     24 C         140.5152  137.5844  156.4383 C.ar    1  UNL1       -0.0003
     25 C         140.6767  136.3425  155.6129 C.ar    1  UNL1        0.0294
     26 C         141.8712  135.4579  155.8145 C.ar    1  UNL1        0.1401
     27 F         142.0326  134.2159  154.9890 F       1  UNL1       -0.2042
     28 C         142.9044  135.8153  156.8415 C.ar    1  UNL1        0.0294
     29 C         142.7430  137.0573  157.6670 C.ar    1  UNL1       -0.0003
@<TRIPOS>BOND
     1    16    17    2
     2    17    18    1
     3    18     1    1
     4     1     2    1
     5     2     3    1
     6     3     4    1
     7     4     8    1
     8     8     9   ar
     9     9    10   ar
    10    10    11   ar
    11    11    12    1
    12    11    13   ar
    13    13    14   ar
    14     4     5    1
    15     5     6    1
    16     5     7    1
    17    18    19    1
    18    19    20    1
    19    20    21    1
    20    21    22    1
    21    22    23    1
    22    23    24   ar
    23    24    25   ar
    24    25    26   ar
    25    26    27    1
    26    26    28   ar
    27    28    29   ar
    28    21    17   am
    29    29    23   ar
    30     7     1    1
    31    14     8   ar
    32    12    15    1
@<TRIPOS>MOLECULE
*****
 29 32 0 0 0
SMALL
GASTEIGER

@<TRIPOS>ATOM
      1 N         142.7411  141.4478  163.0583 N.3     1  UNL1       -0.2641
      2 C         143.6374  140.4581  163.7418 C.3     1  UNL1        0.0730
      3 C         143.5968  140.3157  165.2345 C.3     1  UNL1        0.0245
      4 C         142.6600  141.1629  166.0435 C.3     1  UNL1        0.0577
      5 C         141.7637  142.1526  165.3600 C.3     1  UNL1        0.1808
      6 F         140.8269  142.9998  166.1691 F       1  UNL1       -0.2354
      7 C         141.8043  142.2950  163.8673 C.3     1  UNL1        0.1084
      8 C         142.6195  141.0205  167.5363 C.ar    1  UNL1       -0.0196
      9 C         143.0710  142.1528  168.4103 C.ar    1  UNL1       -0.0011
     10 C         143.0305  142.0104  169.9030 C.ar    1  UNL1        0.0363
     11 C         142.5384  140.7355  170.5216 C.ar    1  UNL1        0.1337
     12 O         142.4979  140.5931  172.0143 O.3     1  UNL1       -0.5055
     13 C         142.0869  139.6032  169.6475 C.ar    1  UNL1        0.0363
     14 C         142.1274  139.7457  168.1549 C.ar    1  UNL1       -0.0011
     15 H         142.7800  141.3004  172.5602 H       1  UNL1        0.2922
     16 O         143.5192  144.1547  161.4101 O.2     1  UNL1       -0.2734
     17 C         143.1393  142.8345  160.8080 C.2     1  UNL1        0.2404
     18 C         142.7816  141.5902  161.5655 C.3     1  UNL1        0.1368
     19 C         142.4716  140.5134  160.5683 C.3     1  UNL1        0.0468
     20 C         142.6376  141.0922  159.1945 C.3     1  UNL1        0.0957
     21 N         143.0503  142.5267  159.3426 N.am    1  UNL1       -0.2743
     22 C         143.3256  143.4852  158.2221 C.3     1  UNL1        0.1202
     23 C         142.2554  144.4312  157.7643 C.ar    1  UNL1       -0.0022
     24 C         141.2117  144.9074  158.7308 C.ar    1  UNL1       -0.0003
     25 C         140.1415  145.8533  158.2730 C.ar    1  UNL1        0.0294
     26 C         140.1149  146.3232  156.8488 C.ar    1  UNL1        0.1401
     27 F         139.0446  147.2693  156.3909 F       1  UNL1       -0.2042
     28 C         141.1586  145.8471  155.8822 C.ar    1  UNL1        0.0294
     29 C         142.2288  144.9011  156.3400 C.ar    1  UNL1       -0.0003
@<TRIPOS>BOND
     1    16    17    2
     2    17    18    1
     3    18     1    1
     4     1     2    1
     5     2     3    1
     6     3     4    1
     7     4     8    1
     8     8     9   ar
     9     9    10   ar
    10    10    11   ar
    11    11    12    1
    12    11    13   ar
    13    13    14   ar
    14     4     5    1
    15     5     6    1
    16     5     7    1
    17    18    19    1
    18    19    20    1
    19    20    21    1
    20    21    22    1
    21    22    23    1
    22    23    24   ar
    23    24    25   ar
    24    25    26   ar
    25    26    27    1
    26    26    28   ar
    27    28    29   ar
    28    21    17   am
    29    29    23   ar
    30     7     1    1
    31    14     8   ar
    32    12    15    1
@<TRIPOS>MOLECULE
*****
 29 32 0 0 0
SMALL
GASTEIGER

@<TRIPOS>ATOM
      1 N         142.9652  141.4890  163.2349 N.3     1  UNL1       -0.2641
      2 C         141.7507  140.7826  163.7601 C.3     1  UNL1        0.0730
      3 C         141.3842  140.8983  165.2100 C.3     1  UNL1        0.0245
      4 C         142.2323  141.7204  166.1347 C.3     1  UNL1        0.0577
      5 C         143.4468  142.4268  165.6094 C.3     1  UNL1        0.1808
      6 F         144.2949  143.2489  166.5341 F       1  UNL1       -0.2354
      7 C         143.8132  142.3111  164.1595 C.3     1  UNL1        0.1084
      8 C         141.8658  141.8361  167.5847 C.ar    1  UNL1       -0.0196
      9 C         140.6973  142.6810  167.9978 C.ar    1  UNL1       -0.0011
     10 C         140.3308  142.7966  169.4478 C.ar    1  UNL1        0.0363
     11 C         141.1329  142.0674  170.4846 C.ar    1  UNL1        0.1337
     12 O         140.7664  142.1830  171.9345 O.3     1  UNL1       -0.5055
     13 C         142.3014  141.2224  170.0713 C.ar    1  UNL1        0.0363
     14 C         142.6679  141.1068  168.6214 C.ar    1  UNL1       -0.0011
     15 H         140.0365  142.7108  172.1926 H       1  UNL1        0.2922
     16 O         143.1668  143.9532  161.1048 O.2     1  UNL1       -0.2734
     17 C         143.4243  142.5060  160.8058 C.2     1  UNL1        0.2404
     18 C         143.3317  141.3733  161.7849 C.3     1  UNL1        0.1368
     19 C         143.6698  140.1048  161.0594 C.3     1  UNL1        0.0468
     20 C         143.9715  140.4534  159.6320 C.3     1  UNL1        0.0957
     21 N         143.8197  141.9375  159.4753 N.am    1  UNL1       -0.2743
     22 C         144.0270  142.7162  158.2101 C.3     1  UNL1        0.1202
     23 C         145.1775  142.3859  157.3061 C.ar    1  UNL1       -0.0022
     24 C         144.9454  141.5856  156.0587 C.ar    1  UNL1       -0.0003
     25 C         146.0958  141.2553  155.1547 C.ar    1  UNL1        0.0294
     26 C         147.4783  141.7252  155.4979 C.ar    1  UNL1        0.1401
     27 F         148.6288  141.3948  154.5938 F       1  UNL1       -0.2042
     28 C         147.7105  142.5254  156.7452 C.ar    1  UNL1        0.0294
     29 C         146.5600  142.8557  157.6493 C.ar    1  UNL1       -0.0003
@<TRIPOS>BOND
     1    16    17    2
     2    17    18    1
     3    18     1    1
     4     1     2    1
     5     2     3    1
     6     3     4    1
     7     4     8    1
     8     8     9   ar
     9     9    10   ar
    10    10    11   ar
    11    11    12    1
    12    11    13   ar
    13    13    14   ar
    14     4     5    1
    15     5     6    1
    16     5     7    1
    17    18    19    1
    18    19    20    1
    19    20    21    1
    20    21    22    1
    21    22    23    1
    22    23    24   ar
    23    24    25   ar
    24    25    26   ar
    25    26    27    1
    26    26    28   ar
    27    28    29   ar
    28    21    17   am
    29    29    23   ar
    30     7     1    1
    31    14     8   ar
    32    12    15    1
@<TRIPOS>MOLECULE
*****
 29 32 0 0 0
SMALL
GASTEIGER

@<TRIPOS>ATOM
      1 N         140.6102  143.6272  163.6086 N.3     1  UNL1       -0.2641
      2 C         139.3341  143.5745  164.3953 C.3     1  UNL1        0.0730
      3 C         139.3448  143.0725  165.8087 C.3     1  UNL1        0.0245
      4 C         140.6314  142.6234  166.4355 C.3     1  UNL1        0.0577
      5 C         141.9074  142.6761  165.6488 C.3     1  UNL1        0.1808
      6 F         143.1941  142.2269  166.2755 F       1  UNL1       -0.2354
      7 C         141.8968  143.1780  164.2353 C.3     1  UNL1        0.1084
      8 C         140.6420  142.1214  167.8490 C.ar    1  UNL1       -0.0196
      9 C         140.7830  140.6534  168.1226 C.ar    1  UNL1       -0.0011
     10 C         140.7936  140.1514  169.5361 C.ar    1  UNL1        0.0363
     11 C         140.6631  141.1176  170.6760 C.ar    1  UNL1        0.1337
     12 O         140.6737  140.6157  172.0895 O.3     1  UNL1       -0.5055
     13 C         140.5221  142.5857  170.4024 C.ar    1  UNL1        0.0363
     14 C         140.5115  143.0876  168.9890 C.ar    1  UNL1       -0.0011
     15 H         140.7618  139.6987  172.2604 H       1  UNL1        0.2922
     16 O         140.9865  141.8093  160.9246 O.2     1  UNL1       -0.2734
     17 C         140.7726  143.2935  160.9614 C.2     1  UNL1        0.2404
     18 C         140.5996  144.1291  162.1950 C.3     1  UNL1        0.1368
     19 C         140.4142  145.5547  161.7670 C.3     1  UNL1        0.0468
     20 C         140.4726  145.6002  160.2688 C.3     1  UNL1        0.0957
     21 N         140.6941  144.2027  159.7709 N.am    1  UNL1       -0.2743
     22 C         140.8157  143.7873  158.3347 C.3     1  UNL1        0.1202
     23 C         139.5842  143.6264  157.4936 C.ar    1  UNL1       -0.0022
     24 C         139.3662  144.5156  156.3052 C.ar    1  UNL1       -0.0003
     25 C         138.1347  144.3548  155.4642 C.ar    1  UNL1        0.0294
     26 C         137.1212  143.3049  155.8113 C.ar    1  UNL1        0.1401
     27 F         135.8897  143.1441  154.9702 F       1  UNL1       -0.2042
     28 C         137.3391  142.4158  156.9996 C.ar    1  UNL1        0.0294
     29 C         138.5707  142.5766  157.8407 C.ar    1  UNL1       -0.0003
@<TRIPOS>BOND
     1    16    17    2
     2    17    18    1
     3    18     1    1
     4     1     2    1
     5     2     3    1
     6     3     4    1
     7     4     8    1
     8     8     9   ar
     9     9    10   ar
    10    10    11   ar
    11    11    12    1
    12    11    13   ar
    13    13    14   ar
    14     4     5    1
    15     5     6    1
    16     5     7    1
    17    18    19    1
    18    19    20    1
    19    20    21    1
    20    21    22    1
    21    22    23    1
    22    23    24   ar
    23    24    25   ar
    24    25    26   ar
    25    26    27    1
    26    26    28   ar
    27    28    29   ar
    28    21    17   am
    29    29    23   ar
    30     7     1    1
    31    14     8   ar
    32    12    15    1
@<TRIPOS>MOLECULE
*****
 29 32 0 0 0
SMALL
GASTEIGER

@<TRIPOS>ATOM
      1 N         142.6878  141.8668  163.2796 N.3     1  UNL1       -0.2641
      2 C         141.4006  141.2804  163.7788 C.3     1  UNL1        0.0730
      3 C         141.0710  141.3307  165.2413 C.3     1  UNL1        0.0245
      4 C         142.0285  141.9675  166.2045 C.3     1  UNL1        0.0577
      5 C         143.3156  142.5540  165.7052 C.3     1  UNL1        0.1808
      6 F         144.2731  143.1907  166.6684 F       1  UNL1       -0.2354
      7 C         143.6453  142.5036  164.2428 C.3     1  UNL1        0.1084
      8 C         141.6988  142.0178  167.6670 C.ar    1  UNL1       -0.0196
      9 C         142.4684  141.1733  168.6388 C.ar    1  UNL1       -0.0011
     10 C         142.1387  141.2236  170.1013 C.ar    1  UNL1        0.0363
     11 C         141.0393  142.1185  170.5919 C.ar    1  UNL1        0.1337
     12 O         140.7096  142.1688  172.0543 O.3     1  UNL1       -0.5055
     13 C         140.2697  142.9630  169.6200 C.ar    1  UNL1        0.0363
     14 C         140.5994  142.9126  168.1576 C.ar    1  UNL1       -0.0011
     15 H         141.1904  141.6413  172.6614 H       1  UNL1        0.2922
     16 O         142.6462  144.3945  161.2159 O.2     1  UNL1       -0.2734
     17 C         142.9984  142.9784  160.8685 C.2     1  UNL1        0.2404
     18 C         143.0175  141.8165  161.8171 C.3     1  UNL1        0.1368
     19 C         143.4242  140.5956  161.0464 C.3     1  UNL1        0.0468
     20 C         143.6564  141.0029  159.6216 C.3     1  UNL1        0.0957
     21 N         143.3932  142.4755  159.5116 N.am    1  UNL1       -0.2743
     22 C         143.5053  143.3004  158.2639 C.3     1  UNL1        0.1202
     23 C         142.2832  143.9425  157.6770 C.ar    1  UNL1       -0.0022
     24 C         142.0758  145.4221  157.8106 C.ar    1  UNL1       -0.0003
     25 C         140.8538  146.0641  157.2238 C.ar    1  UNL1        0.0294
     26 C         139.8393  145.2266  156.5032 C.ar    1  UNL1        0.1401
     27 F         138.6172  145.8687  155.9163 F       1  UNL1       -0.2042
     28 C         140.0466  143.7470  156.3695 C.ar    1  UNL1        0.0294
     29 C         141.2687  143.1050  156.9564 C.ar    1  UNL1       -0.0003
@<TRIPOS>BOND
     1    16    17    2
     2    17    18    1
     3    18     1    1
     4     1     2    1
     5     2     3    1
     6     3     4    1
     7     4     8    1
     8     8     9   ar
     9     9    10   ar
    10    10    11   ar
    11    11    12    1
    12    11    13   ar
    13    13    14   ar
    14     4     5    1
    15     5     6    1
    16     5     7    1
    17    18    19    1
    18    19    20    1
    19    20    21    1
    20    21    22    1
    21    22    23    1
    22    23    24   ar
    23    24    25   ar
    24    25    26   ar
    25    26    27    1
    26    26    28   ar
    27    28    29   ar
    28    21    17   am
    29    29    23   ar
    30     7     1    1
    31    14     8   ar
    32    12    15    1
@<TRIPOS>MOLECULE
*****
 29 32 0 0 0
SMALL
GASTEIGER

@<TRIPOS>ATOM
      1 N         140.2081  141.7453  163.2290 N.3     1  UNL1       -0.2641
      2 C         141.1461  142.6887  163.9219 C.3     1  UNL1        0.0730
      3 C         141.1874  142.7394  165.4204 C.3     1  UNL1        0.0245
      4 C         140.2907  141.8468  166.2261 C.3     1  UNL1        0.0577
      5 C         139.3527  140.9034  165.5332 C.3     1  UNL1        0.1808
      6 F         138.4560  140.0108  166.3389 F       1  UNL1       -0.2354
      7 C         139.3114  140.8527  164.0347 C.3     1  UNL1        0.1084
      8 C         140.3321  141.8975  167.7247 C.ar    1  UNL1       -0.0196
      9 C         140.3931  143.2205  168.4289 C.ar    1  UNL1       -0.0011
     10 C         140.4344  143.2713  169.9275 C.ar    1  UNL1        0.0363
     11 C         140.4148  141.9991  170.7219 C.ar    1  UNL1        0.1337
     12 O         140.4561  142.0498  172.2204 O.3     1  UNL1       -0.5055
     13 C         140.3537  140.6760  170.0176 C.ar    1  UNL1        0.0363
     14 C         140.3124  140.6253  168.5190 C.ar    1  UNL1       -0.0011
     15 H         140.4942  142.8762  172.6603 H       1  UNL1        0.2922
     16 O         138.0037  143.2105  161.3202 O.2     1  UNL1       -0.2734
     17 C         139.1534  142.3680  160.8530 C.2     1  UNL1        0.2404
     18 C         140.1667  141.6945  161.7304 C.3     1  UNL1        0.1368
     19 C         141.1313  140.9614  160.8461 C.3     1  UNL1        0.0468
     20 C         140.7142  141.1817  159.4222 C.3     1  UNL1        0.0957
     21 N         139.4918  142.0511  159.4264 N.am    1  UNL1       -0.2743
     22 C         138.7398  142.5210  158.2166 C.3     1  UNL1        0.1202
     23 C         139.2140  143.7265  157.4602 C.ar    1  UNL1       -0.0022
     24 C         140.0997  144.7332  158.1326 C.ar    1  UNL1       -0.0003
     25 C         140.5739  145.9386  157.3763 C.ar    1  UNL1        0.0294
     26 C         140.1623  146.1373  155.9476 C.ar    1  UNL1        0.1401
     27 F         140.6364  147.3428  155.1912 F       1  UNL1       -0.2042
     28 C         139.2766  145.1306  155.2752 C.ar    1  UNL1        0.0294
     29 C         138.8024  143.9252  156.0316 C.ar    1  UNL1       -0.0003
@<TRIPOS>BOND
     1    16    17    2
     2    17    18    1
     3    18     1    1
     4     1     2    1
     5     2     3    1
     6     3     4    1
     7     4     8    1
     8     8     9   ar
     9     9    10   ar
    10    10    11   ar
    11    11    12    1
    12    11    13   ar
    13    13    14   ar
    14     4     5    1
    15     5     6    1
    16     5     7    1
    17    18    19    1
    18    19    20    1
    19    20    21    1
    20    21    22    1
    21    22    23    1
    22    23    24   ar
    23    24    25   ar
    24    25    26   ar
    25    26    27    1
    26    26    28   ar
    27    28    29   ar
    28    21    17   am
    29    29    23   ar
    30     7     1    1
    31    14     8   ar
    32    12    15    1
