@<TRIPOS>MOLECULE
*****
 38 42 0 0 0
SMALL
GASTEIGER

@<TRIPOS>ATOM
      1 N         141.0605  138.5743  164.0062 N.am    1  UNL1       -0.2794
      2 C         140.4755  139.0465  162.7082 C.2     1  UNL1        0.2495
      3 O         139.2760  139.9472  162.7098 O.2     1  UNL1       -0.2698
      4 H         141.8477  137.9831  164.0052 H       1  UNL1        0.1552
      5 N         138.3302  137.5933  164.7701 N.pl3   1  UNL1       -0.3560
      6 C         139.0809  138.5123  165.6877 C.ar    1  UNL1        0.0552
      7 C         138.4664  138.9408  166.9872 C.ar    1  UNL1        0.0153
      8 C         139.2172  139.8599  167.9048 C.ar    1  UNL1        0.0013
      9 C         140.5822  140.3503  167.5228 C.ar    1  UNL1        0.0013
     10 C         141.1967  139.9218  166.2233 C.ar    1  UNL1        0.0159
     11 C         140.4460  139.0028  165.3057 C.ar    1  UNL1        0.0636
     12 H         137.4343  137.2714  165.0208 H       1  UNL1        0.1424
     13 H         138.7335  137.3120  163.9172 H       1  UNL1        0.1424
     14 C         141.3329  141.2694  168.4404 C.ar    1  UNL1        0.0002
     15 C         142.7799  141.0120  168.7405 C.ar    1  UNL1        0.0023
     16 C         143.5306  141.9311  169.6580 C.ar    1  UNL1        0.0296
     17 C         142.8342  143.1074  170.2754 C.ar    1  UNL1        0.1401
     18 F         143.5849  144.0265  171.1930 F       1  UNL1       -0.2042
     19 C         141.3873  143.3648  169.9753 C.ar    1  UNL1        0.0296
     20 C         140.6366  142.4457  169.0578 C.ar    1  UNL1        0.0023
     21 C         141.0899  138.6180  161.4086 C.ar    1  UNL1        0.0537
     22 C         140.3713  138.8773  160.1177 C.ar    1  UNL1        0.0042
     23 C         140.9858  138.4488  158.8181 C.ar    1  UNL1       -0.0028
     24 C         142.3188  137.7610  158.8095 C.ar    1  UNL1       -0.0061
     25 C         143.0373  137.5017  160.1004 C.ar    1  UNL1       -0.0028
     26 C         142.4229  137.9302  161.4000 C.ar    1  UNL1        0.0042
     27 C         142.9332  137.3326  157.5100 C.3     1  UNL1        0.0991
     28 N         142.6839  135.9508  156.9820 N.3     1  UNL1       -0.2690
     29 C         141.7188  135.7421  155.8528 C.3     1  UNL1        0.0724
     30 C         141.4696  134.3604  155.3249 C.3     1  UNL1        0.0188
     31 C         142.1855  133.1873  155.9261 C.3     1  UNL1        0.0185
     32 C         142.8242  131.9248  156.4241 C.3     1  UNL1        0.0185
     33 C         142.2873  130.7827  155.6133 C.3     1  UNL1        0.0686
     34 N         141.3167  131.3395  154.6142 N.3     1  UNL1       -0.2975
     35 C         141.2538  132.8256  154.8076 C.3     1  UNL1        0.0686
     36 C         143.1506  133.3961  157.0553 C.3     1  UNL1        0.0188
     37 C         143.3998  134.7778  157.5832 C.3     1  UNL1        0.0724
     38 H         140.3938  130.9316  154.7637 H       1  UNL1        0.1232
@<TRIPOS>BOND
     1     5     6    1
     2     6     7   ar
     3     7     8   ar
     4     8     9   ar
     5     9    14    1
     6    14    15   ar
     7    15    16   ar
     8    16    17   ar
     9    17    18    1
    10    17    19   ar
    11    19    20   ar
    12     9    10   ar
    13    10    11   ar
    14    11     1    1
    15     1     2   am
    16     2     3    2
    17     2    21    1
    18    21    22   ar
    19    22    23   ar
    20    23    24   ar
    21    24    27    1
    22    27    28    1
    23    28    29    1
    24    29    30    1
    25    30    31    1
    26    31    32    1
    27    32    33    1
    28    33    34    1
    29    34    35    1
    30    31    36    1
    31    36    37    1
    32    24    25   ar
    33    25    26   ar
    34    11     6   ar
    35    26    21   ar
    36    20    14   ar
    37    37    28    1
    38    35    31    1
    39     5    12    1
    40     5    13    1
    41     1     4    1
    42    34    38    1
@<TRIPOS>MOLECULE
*****
 38 42 0 0 0
SMALL
GASTEIGER

@<TRIPOS>ATOM
      1 N         140.3118  140.9727  161.2661 N.am    1  UNL1       -0.2794
      2 C         139.8256  139.6197  160.8385 C.2     1  UNL1        0.2495
      3 O         138.6633  138.9836  161.5417 O.2     1  UNL1       -0.2698
      4 H         141.0747  141.3902  160.8046 H       1  UNL1        0.1552
      5 N         138.1625  142.9860  160.6944 N.pl3   1  UNL1       -0.3560
      6 C         138.5610  142.6963  162.1111 C.ar    1  UNL1        0.0552
      7 C         137.8849  143.4132  163.2420 C.ar    1  UNL1        0.0153
      8 C         138.2836  143.1234  164.6588 C.ar    1  UNL1        0.0013
      9 C         139.3582  142.1168  164.9446 C.ar    1  UNL1        0.0013
     10 C         140.0343  141.3999  163.8137 C.ar    1  UNL1        0.0159
     11 C         139.6357  141.6896  162.3970 C.ar    1  UNL1        0.0636
     12 H         137.4571  143.6467  160.5067 H       1  UNL1        0.1424
     13 H         138.6062  142.5155  159.9521 H       1  UNL1        0.1424
     14 C         139.7568  141.8271  166.3614 C.ar    1  UNL1        0.0002
     15 C         140.3985  142.8972  167.1939 C.ar    1  UNL1        0.0023
     16 C         140.7971  142.6074  168.6106 C.ar    1  UNL1        0.0296
     17 C         140.5540  141.2474  169.1948 C.ar    1  UNL1        0.1401
     18 F         140.9526  140.9575  170.6116 F       1  UNL1       -0.2042
     19 C         139.9124  140.1772  168.3623 C.ar    1  UNL1        0.0296
     20 C         139.5138  140.4671  166.9456 C.ar    1  UNL1        0.0023
     21 C         140.5017  138.9026  159.7076 C.ar    1  UNL1        0.0537
     22 C         139.7382  138.5891  158.4550 C.ar    1  UNL1        0.0042
     23 C         140.4143  137.8721  157.3242 C.ar    1  UNL1       -0.0028
     24 C         141.8539  137.4685  157.4460 C.ar    1  UNL1       -0.0061
     25 C         142.6174  137.7820  158.6985 C.ar    1  UNL1       -0.0028
     26 C         141.9412  138.4991  159.8293 C.ar    1  UNL1        0.0042
     27 C         142.5299  136.7515  156.3152 C.3     1  UNL1        0.0991
     28 N         142.4897  135.2536  156.2461 N.3     1  UNL1       -0.2690
     29 C         141.5632  134.5717  155.2835 C.3     1  UNL1        0.0724
     30 C         141.5231  133.0738  155.2145 C.3     1  UNL1        0.0188
     31 C         142.4095  132.2578  156.1080 C.3     1  UNL1        0.0185
     32 C         143.2327  131.3148  156.9343 C.3     1  UNL1        0.0185
     33 C         142.8711  129.9142  156.5375 C.3     1  UNL1        0.0686
     34 N         141.8243  129.9916  155.4659 N.3     1  UNL1       -0.2975
     35 C         141.5391  131.4401  155.2004 C.3     1  UNL1        0.0686
     36 C         143.3360  132.9397  157.0705 C.3     1  UNL1        0.0188
     37 C         143.3762  134.4376  157.1396 C.3     1  UNL1        0.0724
     38 H         140.9739  129.5229  155.7782 H       1  UNL1        0.1232
@<TRIPOS>BOND
     1     5     6    1
     2     6     7   ar
     3     7     8   ar
     4     8     9   ar
     5     9    14    1
     6    14    15   ar
     7    15    16   ar
     8    16    17   ar
     9    17    18    1
    10    17    19   ar
    11    19    20   ar
    12     9    10   ar
    13    10    11   ar
    14    11     1    1
    15     1     2   am
    16     2     3    2
    17     2    21    1
    18    21    22   ar
    19    22    23   ar
    20    23    24   ar
    21    24    27    1
    22    27    28    1
    23    28    29    1
    24    29    30    1
    25    30    31    1
    26    31    32    1
    27    32    33    1
    28    33    34    1
    29    34    35    1
    30    31    36    1
    31    36    37    1
    32    24    25   ar
    33    25    26   ar
    34    11     6   ar
    35    26    21   ar
    36    20    14   ar
    37    37    28    1
    38    35    31    1
    39     5    12    1
    40     5    13    1
    41     1     4    1
    42    34    38    1
@<TRIPOS>MOLECULE
*****
 38 42 0 0 0
SMALL
GASTEIGER

@<TRIPOS>ATOM
      1 N         140.2843  140.9690  161.2996 N.am    1  UNL1       -0.2794
      2 C         139.7937  139.6253  160.8482 C.2     1  UNL1        0.2495
      3 O         138.6252  138.9836  161.5359 O.2     1  UNL1       -0.2698
      4 H         141.0512  141.3901  160.8483 H       1  UNL1        0.1552
      5 N         138.1000  142.9514  160.7528 N.pl3   1  UNL1       -0.3560
      6 C         138.5141  142.6623  162.1652 C.ar    1  UNL1        0.0552
      7 C         137.8361  143.3644  163.3043 C.ar    1  UNL1        0.0153
      8 C         138.2503  143.0752  164.7167 C.ar    1  UNL1        0.0013
      9 C         139.3424  142.0841  164.9900 C.ar    1  UNL1        0.0013
     10 C         140.0204  141.3820  163.8510 C.ar    1  UNL1        0.0159
     11 C         139.6063  141.6711  162.4386 C.ar    1  UNL1        0.0636
     12 H         137.3832  143.6020  160.5734 H       1  UNL1        0.1424
     13 H         138.5450  142.4906  160.0053 H       1  UNL1        0.1424
     14 C         139.7566  141.7949  166.4025 C.ar    1  UNL1        0.0002
     15 C         139.5775  140.4179  166.9697 C.ar    1  UNL1        0.0023
     16 C         139.9917  140.1288  168.3821 C.ar    1  UNL1        0.0296
     17 C         140.5850  141.2167  169.2273 C.ar    1  UNL1        0.1401
     18 F         140.9993  140.9276  170.6396 F       1  UNL1       -0.2042
     19 C         140.7642  142.5937  168.6600 C.ar    1  UNL1        0.0296
     20 C         140.3500  142.8828  167.2476 C.ar    1  UNL1        0.0023
     21 C         140.4717  138.9230  159.7092 C.ar    1  UNL1        0.0537
     22 C         141.9221  138.5547  159.8118 C.ar    1  UNL1        0.0042
     23 C         142.5999  137.8525  158.6727 C.ar    1  UNL1       -0.0028
     24 C         141.8273  137.5187  157.4311 C.ar    1  UNL1       -0.0061
     25 C         140.3769  137.8870  157.3285 C.ar    1  UNL1       -0.0028
     26 C         139.6991  138.5892  158.4676 C.ar    1  UNL1        0.0042
     27 C         142.5052  136.8165  156.2921 C.3     1  UNL1        0.0991
     28 N         142.4595  135.3200  156.1998 N.3     1  UNL1       -0.2690
     29 C         143.3500  134.4870  157.0734 C.3     1  UNL1        0.0724
     30 C         143.3043  132.9906  156.9810 C.3     1  UNL1        0.0188
     31 C         142.3680  132.3271  156.0150 C.3     1  UNL1        0.0185
     32 C         141.4879  131.5266  155.1014 C.3     1  UNL1        0.0185
     33 C         141.7703  130.0732  155.3418 C.3     1  UNL1        0.0686
     34 N         142.8250  129.9754  156.4039 N.3     1  UNL1       -0.2975
     35 C         143.1944  131.3684  156.8199 C.3     1  UNL1        0.0686
     36 C         141.4775  133.1600  155.1414 C.3     1  UNL1        0.0188
     37 C         141.5233  134.6565  155.2338 C.3     1  UNL1        0.0724
     38 H         143.6455  129.4956  156.0338 H       1  UNL1        0.1232
@<TRIPOS>BOND
     1     5     6    1
     2     6     7   ar
     3     7     8   ar
     4     8     9   ar
     5     9    14    1
     6    14    15   ar
     7    15    16   ar
     8    16    17   ar
     9    17    18    1
    10    17    19   ar
    11    19    20   ar
    12     9    10   ar
    13    10    11   ar
    14    11     1    1
    15     1     2   am
    16     2     3    2
    17     2    21    1
    18    21    22   ar
    19    22    23   ar
    20    23    24   ar
    21    24    27    1
    22    27    28    1
    23    28    29    1
    24    29    30    1
    25    30    31    1
    26    31    32    1
    27    32    33    1
    28    33    34    1
    29    34    35    1
    30    31    36    1
    31    36    37    1
    32    24    25   ar
    33    25    26   ar
    34    11     6   ar
    35    26    21   ar
    36    20    14   ar
    37    37    28    1
    38    35    31    1
    39     5    12    1
    40     5    13    1
    41     1     4    1
    42    34    38    1
@<TRIPOS>MOLECULE
*****
 38 42 0 0 0
SMALL
GASTEIGER

@<TRIPOS>ATOM
      1 N         142.9351  138.1498  159.9807 N.am    1  UNL1       -0.2794
      2 C         141.8743  138.2574  161.0358 C.2     1  UNL1        0.2495
      3 O         140.4279  138.3117  160.6424 O.2     1  UNL1       -0.2698
      4 H         143.8844  138.1141  160.2389 H       1  UNL1        0.1552
      5 N         141.8878  140.6075  158.6159 N.pl3   1  UNL1       -0.3560
      6 C         142.0257  139.3253  157.8497 C.ar    1  UNL1        0.0552
      7 C         141.6399  139.2720  156.4012 C.ar    1  UNL1        0.0153
      8 C         141.7778  137.9897  155.6351 C.ar    1  UNL1        0.0013
      9 C         142.3014  136.7609  156.3175 C.ar    1  UNL1        0.0013
     10 C         142.6872  136.8143  157.7660 C.ar    1  UNL1        0.0159
     11 C         142.5493  138.0965  158.5322 C.ar    1  UNL1        0.0636
     12 H         141.5442  141.4141  158.1680 H       1  UNL1        0.1424
     13 H         142.1410  140.6425  159.5666 H       1  UNL1        0.1424
     14 C         142.4393  135.4786  155.5514 C.ar    1  UNL1        0.0002
     15 C         143.0322  134.2699  156.2127 C.ar    1  UNL1        0.0023
     16 C         143.1700  132.9877  155.4466 C.ar    1  UNL1        0.0296
     17 C         142.7150  132.9143  154.0191 C.ar    1  UNL1        0.1401
     18 F         142.8528  131.6321  153.2530 F       1  UNL1       -0.2042
     19 C         142.1221  134.1231  153.3579 C.ar    1  UNL1        0.0296
     20 C         141.9842  135.4052  154.1240 C.ar    1  UNL1        0.0023
     21 C         142.2600  138.3107  162.4845 C.ar    1  UNL1        0.0537
     22 C         143.5048  139.0355  162.9031 C.ar    1  UNL1        0.0042
     23 C         143.8903  139.0887  164.3517 C.ar    1  UNL1       -0.0028
     24 C         143.0311  138.4172  165.3817 C.ar    1  UNL1       -0.0061
     25 C         141.7864  137.6925  164.9631 C.ar    1  UNL1       -0.0028
     26 C         141.4008  137.6392  163.5145 C.ar    1  UNL1        0.0042
     27 C         143.4167  138.4705  166.8303 C.3     1  UNL1        0.0991
     28 N         142.6927  139.3930  167.7657 N.3     1  UNL1       -0.2690
     29 C         142.6539  139.0925  169.2348 C.3     1  UNL1        0.0724
     30 C         141.9298  140.0150  170.1701 C.3     1  UNL1        0.0188
     31 C         141.2447  141.2379  169.6364 C.3     1  UNL1        0.0185
     32 C         140.5172  142.4918  169.2506 C.3     1  UNL1        0.0185
     33 C         139.9440  143.0972  170.4976 C.3     1  UNL1        0.0686
     34 N         140.3171  142.2176  171.6539 N.3     1  UNL1       -0.2975
     35 C         141.1210  141.0685  171.1216 C.3     1  UNL1        0.0686
     36 C         141.2835  141.5384  168.1673 C.3     1  UNL1        0.0188
     37 C         142.0076  140.6160  167.2320 C.3     1  UNL1        0.0724
     38 H         139.4739  141.8686  172.1095 H       1  UNL1        0.1232
@<TRIPOS>BOND
     1     5     6    1
     2     6     7   ar
     3     7     8   ar
     4     8     9   ar
     5     9    14    1
     6    14    15   ar
     7    15    16   ar
     8    16    17   ar
     9    17    18    1
    10    17    19   ar
    11    19    20   ar
    12     9    10   ar
    13    10    11   ar
    14    11     1    1
    15     1     2   am
    16     2     3    2
    17     2    21    1
    18    21    22   ar
    19    22    23   ar
    20    23    24   ar
    21    24    27    1
    22    27    28    1
    23    28    29    1
    24    29    30    1
    25    30    31    1
    26    31    32    1
    27    32    33    1
    28    33    34    1
    29    34    35    1
    30    31    36    1
    31    36    37    1
    32    24    25   ar
    33    25    26   ar
    34    11     6   ar
    35    26    21   ar
    36    20    14   ar
    37    37    28    1
    38    35    31    1
    39     5    12    1
    40     5    13    1
    41     1     4    1
    42    34    38    1
@<TRIPOS>MOLECULE
*****
 38 42 0 0 0
SMALL
GASTEIGER

@<TRIPOS>ATOM
      1 N         141.0993  144.3262  161.4148 N.am    1  UNL1       -0.2794
      2 C         141.5873  143.6966  160.1439 C.2     1  UNL1        0.2495
      3 O         142.4622  142.4793  160.1976 O.2     1  UNL1       -0.2698
      4 H         140.5250  145.1251  161.3796 H       1  UNL1        0.1552
      5 N         143.6769  145.1354  162.7192 N.pl3   1  UNL1       -0.3560
      6 C         142.7751  144.1432  163.3918 C.ar    1  UNL1        0.0552
      7 C         143.1621  143.5557  164.7165 C.ar    1  UNL1        0.0153
      8 C         142.2602  142.5635  165.3891 C.ar    1  UNL1        0.0013
      9 C         140.9715  142.1589  164.7369 C.ar    1  UNL1        0.0013
     10 C         140.5845  142.7465  163.4122 C.ar    1  UNL1        0.0159
     11 C         141.4863  143.7386  162.7396 C.ar    1  UNL1        0.0636
     12 H         144.5227  145.4010  163.1473 H       1  UNL1        0.1424
     13 H         143.4229  145.5211  161.8497 H       1  UNL1        0.1424
     14 C         140.0696  141.1667  165.4095 C.ar    1  UNL1        0.0002
     15 C         139.0020  140.4683  164.6204 C.ar    1  UNL1        0.0023
     16 C         138.1002  139.4761  165.2930 C.ar    1  UNL1        0.0296
     17 C         138.2660  139.1824  166.7546 C.ar    1  UNL1        0.1401
     18 F         137.3642  138.1902  167.4272 F       1  UNL1       -0.2042
     19 C         139.3335  139.8808  167.5436 C.ar    1  UNL1        0.0296
     20 C         140.2353  140.8730  166.8710 C.ar    1  UNL1        0.0023
     21 C         141.2003  144.2841  158.8190 C.ar    1  UNL1        0.0537
     22 C         142.0806  145.3088  158.1670 C.ar    1  UNL1        0.0042
     23 C         141.6936  145.8962  156.8422 C.ar    1  UNL1       -0.0028
     24 C         140.4263  145.4589  156.1694 C.ar    1  UNL1       -0.0061
     25 C         139.5460  144.4342  156.8213 C.ar    1  UNL1       -0.0028
     26 C         139.9330  143.8468  158.1461 C.ar    1  UNL1        0.0042
     27 C         140.0393  146.0463  154.8446 C.3     1  UNL1        0.0991
     28 N         139.7842  147.5195  154.7232 N.3     1  UNL1       -0.2690
     29 C         140.3513  148.2861  153.5653 C.3     1  UNL1        0.0724
     30 C         140.0961  149.7592  153.4440 C.3     1  UNL1        0.0188
     31 C         139.2737  150.4658  154.4805 C.3     1  UNL1        0.0185
     32 C         138.4747  151.3037  155.4342 C.3     1  UNL1        0.0185
     33 C         138.4799  152.7154  154.9272 C.3     1  UNL1        0.0686
     34 N         139.2822  152.7500  153.6603 N.3     1  UNL1       -0.2975
     35 C         139.7728  151.3597  153.3842 C.3     1  UNL1        0.0686
     36 C         138.7066  149.6992  155.6384 C.3     1  UNL1        0.0188
     37 C         138.9618  148.2261  155.7597 C.3     1  UNL1        0.0724
     38 H         140.0755  153.3816  153.7701 H       1  UNL1        0.1232
@<TRIPOS>BOND
     1     5     6    1
     2     6     7   ar
     3     7     8   ar
     4     8     9   ar
     5     9    14    1
     6    14    15   ar
     7    15    16   ar
     8    16    17   ar
     9    17    18    1
    10    17    19   ar
    11    19    20   ar
    12     9    10   ar
    13    10    11   ar
    14    11     1    1
    15     1     2   am
    16     2     3    2
    17     2    21    1
    18    21    22   ar
    19    22    23   ar
    20    23    24   ar
    21    24    27    1
    22    27    28    1
    23    28    29    1
    24    29    30    1
    25    30    31    1
    26    31    32    1
    27    32    33    1
    28    33    34    1
    29    34    35    1
    30    31    36    1
    31    36    37    1
    32    24    25   ar
    33    25    26   ar
    34    11     6   ar
    35    26    21   ar
    36    20    14   ar
    37    37    28    1
    38    35    31    1
    39     5    12    1
    40     5    13    1
    41     1     4    1
    42    34    38    1
@<TRIPOS>MOLECULE
*****
 38 42 0 0 0
SMALL
GASTEIGER

@<TRIPOS>ATOM
      1 N         139.7073  138.5752  161.5583 N.am    1  UNL1       -0.2794
      2 C         140.4464  139.2890  160.4655 C.2     1  UNL1        0.2495
      3 O         140.7787  140.7445  160.6115 O.2     1  UNL1       -0.2698
      4 H         139.4892  137.6199  161.4626 H       1  UNL1        0.1552
      5 N         137.2573  140.3064  161.5335 N.pl3   1  UNL1       -0.3560
      6 C         138.0754  140.1825  162.7846 C.ar    1  UNL1        0.0552
      7 C         137.6686  140.9241  164.0233 C.ar    1  UNL1        0.0153
      8 C         138.4868  140.8001  165.2745 C.ar    1  UNL1        0.0013
      9 C         139.7117  139.9346  165.2868 C.ar    1  UNL1        0.0013
     10 C         140.1186  139.1929  164.0481 C.ar    1  UNL1        0.0159
     11 C         139.3004  139.3169  162.7970 C.ar    1  UNL1        0.0636
     12 H         136.4533  140.8745  161.5254 H       1  UNL1        0.1424
     13 H         137.5244  139.8196  160.7205 H       1  UNL1        0.1424
     14 C         140.5299  139.8106  166.5380 C.ar    1  UNL1        0.0002
     15 C         141.9699  139.3988  166.4548 C.ar    1  UNL1        0.0023
     16 C         142.7880  139.2748  167.7059 C.ar    1  UNL1        0.0296
     17 C         142.1661  139.5626  169.0402 C.ar    1  UNL1        0.1401
     18 F         142.9843  139.4386  170.2913 F       1  UNL1       -0.2042
     19 C         140.7262  139.9744  169.1234 C.ar    1  UNL1        0.0296
     20 C         139.9080  140.0984  167.8723 C.ar    1  UNL1        0.0023
     21 C         140.8533  138.5474  159.2267 C.ar    1  UNL1        0.0537
     22 C         142.2718  138.0894  159.0586 C.ar    1  UNL1        0.0042
     23 C         142.6786  137.3478  157.8198 C.ar    1  UNL1       -0.0028
     24 C         141.6669  137.0643  156.7492 C.ar    1  UNL1       -0.0061
     25 C         140.2485  137.5224  156.9173 C.ar    1  UNL1       -0.0028
     26 C         139.8417  138.2639  158.1561 C.ar    1  UNL1        0.0042
     27 C         142.0738  136.3228  155.5104 C.3     1  UNL1        0.0991
     28 N         142.4329  134.8686  155.5907 N.3     1  UNL1       -0.2690
     29 C         141.3893  133.8229  155.3312 C.3     1  UNL1        0.0724
     30 C         141.7485  132.3687  155.4115 C.3     1  UNL1        0.0188
     31 C         143.1512  131.9603  155.7513 C.3     1  UNL1        0.0185
     32 C         144.5049  131.4032  156.0785 C.3     1  UNL1        0.0185
     33 C         144.4100  129.9065  156.0479 C.3     1  UNL1        0.0686
     34 N         142.9976  129.5386  155.7018 N.3     1  UNL1       -0.2975
     35 C         142.2196  130.8079  155.5185 C.3     1  UNL1        0.0686
     36 C         144.1948  133.0060  156.0109 C.3     1  UNL1        0.0188
     37 C         143.8356  134.4601  155.9306 C.3     1  UNL1        0.0724
     38 H         142.5885  128.9878  156.4566 H       1  UNL1        0.1232
@<TRIPOS>BOND
     1     5     6    1
     2     6     7   ar
     3     7     8   ar
     4     8     9   ar
     5     9    14    1
     6    14    15   ar
     7    15    16   ar
     8    16    17   ar
     9    17    18    1
    10    17    19   ar
    11    19    20   ar
    12     9    10   ar
    13    10    11   ar
    14    11     1    1
    15     1     2   am
    16     2     3    2
    17     2    21    1
    18    21    22   ar
    19    22    23   ar
    20    23    24   ar
    21    24    27    1
    22    27    28    1
    23    28    29    1
    24    29    30    1
    25    30    31    1
    26    31    32    1
    27    32    33    1
    28    33    34    1
    29    34    35    1
    30    31    36    1
    31    36    37    1
    32    24    25   ar
    33    25    26   ar
    34    11     6   ar
    35    26    21   ar
    36    20    14   ar
    37    37    28    1
    38    35    31    1
    39     5    12    1
    40     5    13    1
    41     1     4    1
    42    34    38    1
@<TRIPOS>MOLECULE
*****
 38 42 0 0 0
SMALL
GASTEIGER

@<TRIPOS>ATOM
      1 N         143.4023  140.4155  162.3082 N.am    1  UNL1       -0.2794
      2 C         142.3339  140.7778  161.3196 C.2     1  UNL1        0.2495
      3 O         141.3919  141.9075  161.6137 O.2     1  UNL1       -0.2698
      4 H         144.0205  139.6740  162.1152 H       1  UNL1        0.1552
      5 N         145.1392  142.8585  162.4296 N.pl3   1  UNL1       -0.3560
      6 C         144.3971  142.4044  163.6515 C.ar    1  UNL1        0.0552
      7 C         144.5235  143.1717  164.9342 C.ar    1  UNL1        0.0153
      8 C         143.7813  142.7175  166.1561 C.ar    1  UNL1        0.0013
      9 C         142.9129  141.4961  166.0953 C.ar    1  UNL1        0.0013
     10 C         142.7866  140.7287  164.8127 C.ar    1  UNL1        0.0159
     11 C         143.5286  141.1829  163.5908 C.ar    1  UNL1        0.0636
     12 H         145.7092  143.6603  162.4695 H       1  UNL1        0.1424
     13 H         145.0562  142.3549  161.5878 H       1  UNL1        0.1424
     14 C         142.1708  141.0418  167.3173 C.ar    1  UNL1        0.0002
     15 C         142.6861  139.8849  168.1210 C.ar    1  UNL1        0.0023
     16 C         141.9440  139.4308  169.3428 C.ar    1  UNL1        0.0296
     17 C         140.6865  140.1335  169.7610 C.ar    1  UNL1        0.1401
     18 F         139.9444  139.6794  170.9828 F       1  UNL1       -0.2042
     19 C         140.1712  141.2904  168.9572 C.ar    1  UNL1        0.0296
     20 C         140.9133  141.7446  167.7354 C.ar    1  UNL1        0.0023
     21 C         142.2074  140.0105  160.0369 C.ar    1  UNL1        0.0537
     22 C         140.9736  139.2019  159.7651 C.ar    1  UNL1        0.0042
     23 C         140.8472  138.4347  158.4824 C.ar    1  UNL1       -0.0028
     24 C         141.9547  138.4760  157.4715 C.ar    1  UNL1       -0.0061
     25 C         143.1885  139.2845  157.7433 C.ar    1  UNL1       -0.0028
     26 C         143.3149  140.0518  159.0260 C.ar    1  UNL1        0.0042
     27 C         141.8282  137.7087  156.1889 C.3     1  UNL1        0.0991
     28 N         142.0125  136.2200  156.1841 N.3     1  UNL1       -0.2690
     29 C         143.0171  135.5856  157.0996 C.3     1  UNL1        0.0724
     30 C         143.2013  134.0970  157.0948 C.3     1  UNL1        0.0188
     31 C         142.3808  133.2427  156.1745 C.3     1  UNL1        0.0185
     32 C         141.6366  132.2650  155.3142 C.3     1  UNL1        0.0185
     33 C         142.1374  130.8885  155.6372 C.3     1  UNL1        0.0686
     34 N         143.1912  131.0154  156.6971 N.3     1  UNL1       -0.2975
     35 C         143.3416  132.4705  157.0292 C.3     1  UNL1        0.0686
     36 C         141.3762  133.8771  155.2590 C.3     1  UNL1        0.0188
     37 C         141.1920  135.3657  155.2638 C.3     1  UNL1        0.0724
     38 H         144.0766  130.6460  156.3509 H       1  UNL1        0.1232
@<TRIPOS>BOND
     1     5     6    1
     2     6     7   ar
     3     7     8   ar
     4     8     9   ar
     5     9    14    1
     6    14    15   ar
     7    15    16   ar
     8    16    17   ar
     9    17    18    1
    10    17    19   ar
    11    19    20   ar
    12     9    10   ar
    13    10    11   ar
    14    11     1    1
    15     1     2   am
    16     2     3    2
    17     2    21    1
    18    21    22   ar
    19    22    23   ar
    20    23    24   ar
    21    24    27    1
    22    27    28    1
    23    28    29    1
    24    29    30    1
    25    30    31    1
    26    31    32    1
    27    32    33    1
    28    33    34    1
    29    34    35    1
    30    31    36    1
    31    36    37    1
    32    24    25   ar
    33    25    26   ar
    34    11     6   ar
    35    26    21   ar
    36    20    14   ar
    37    37    28    1
    38    35    31    1
    39     5    12    1
    40     5    13    1
    41     1     4    1
    42    34    38    1
@<TRIPOS>MOLECULE
*****
 38 42 0 0 0
SMALL
GASTEIGER

@<TRIPOS>ATOM
      1 N         140.0468  144.8075  158.4090 N.am    1  UNL1       -0.2794
      2 C         141.3306  145.1473  159.1063 C.2     1  UNL1        0.2495
      3 O         142.3904  145.9287  158.3877 O.2     1  UNL1       -0.2698
      4 H         139.3512  144.2947  158.8806 H       1  UNL1        0.1552
      5 N         139.8836  142.7722  156.2110 N.pl3   1  UNL1       -0.3560
      6 C         139.7411  144.2314  155.8941 C.ar    1  UNL1        0.0552
      7 C         139.5171  144.6729  154.4782 C.ar    1  UNL1        0.0153
      8 C         139.3746  146.1322  154.1613 C.ar    1  UNL1        0.0013
      9 C         139.4561  147.1498  155.2602 C.ar    1  UNL1        0.0013
     10 C         139.6802  146.7082  156.6761 C.ar    1  UNL1        0.0159
     11 C         139.8227  145.2490  156.9931 C.ar    1  UNL1        0.0636
     12 H         139.8301  142.1043  155.4897 H       1  UNL1        0.1424
     13 H         140.0307  142.4824  157.1403 H       1  UNL1        0.1424
     14 C         139.3136  148.6090  154.9434 C.ar    1  UNL1        0.0002
     15 C         139.8942  149.1614  153.6753 C.ar    1  UNL1        0.0023
     16 C         139.7516  150.6206  153.3585 C.ar    1  UNL1        0.0296
     17 C         139.0286  151.5274  154.3098 C.ar    1  UNL1        0.1401
     18 F         138.8860  152.9867  153.9929 F       1  UNL1       -0.2042
     19 C         138.4481  150.9751  155.5778 C.ar    1  UNL1        0.0296
     20 C         138.5906  149.5159  155.8946 C.ar    1  UNL1        0.0023
     21 C         141.5548  144.7058  160.5223 C.ar    1  UNL1        0.0537
     22 C         140.7507  145.3128  161.6335 C.ar    1  UNL1        0.0042
     23 C         140.9750  144.8713  163.0493 C.ar    1  UNL1       -0.0028
     24 C         142.0034  143.8227  163.3540 C.ar    1  UNL1       -0.0061
     25 C         142.8075  143.2156  162.2428 C.ar    1  UNL1       -0.0028
     26 C         142.5833  143.6572  160.8269 C.ar    1  UNL1        0.0042
     27 C         142.2276  143.3812  164.7699 C.3     1  UNL1        0.0991
     28 N         141.2938  142.3934  165.4043 N.3     1  UNL1       -0.2690
     29 C         141.2197  142.2840  166.8985 C.3     1  UNL1        0.0724
     30 C         140.2859  141.2963  167.5328 C.3     1  UNL1        0.0188
     31 C         139.4262  140.4179  166.6730 C.3     1  UNL1        0.0185
     32 C         138.5104  139.4782  165.9463 C.3     1  UNL1        0.0185
     33 C         137.7625  138.6760  166.9696 C.3     1  UNL1        0.0686
     34 N         138.2161  139.1199  168.3287 N.3     1  UNL1       -0.2975
     35 C         139.2443  140.1965  168.1454 C.3     1  UNL1        0.0686
     36 C         139.5003  140.5273  165.1788 C.3     1  UNL1        0.0188
     37 C         140.4341  141.5151  164.5445 C.3     1  UNL1        0.0724
     38 H         138.6253  138.3324  168.8314 H       1  UNL1        0.1232
@<TRIPOS>BOND
     1     5     6    1
     2     6     7   ar
     3     7     8   ar
     4     8     9   ar
     5     9    14    1
     6    14    15   ar
     7    15    16   ar
     8    16    17   ar
     9    17    18    1
    10    17    19   ar
    11    19    20   ar
    12     9    10   ar
    13    10    11   ar
    14    11     1    1
    15     1     2   am
    16     2     3    2
    17     2    21    1
    18    21    22   ar
    19    22    23   ar
    20    23    24   ar
    21    24    27    1
    22    27    28    1
    23    28    29    1
    24    29    30    1
    25    30    31    1
    26    31    32    1
    27    32    33    1
    28    33    34    1
    29    34    35    1
    30    31    36    1
    31    36    37    1
    32    24    25   ar
    33    25    26   ar
    34    11     6   ar
    35    26    21   ar
    36    20    14   ar
    37    37    28    1
    38    35    31    1
    39     5    12    1
    40     5    13    1
    41     1     4    1
    42    34    38    1
@<TRIPOS>MOLECULE
*****
 38 42 0 0 0
SMALL
GASTEIGER

@<TRIPOS>ATOM
      1 N         141.6293  138.3605  159.3157 N.am    1  UNL1       -0.2794
      2 C         142.3349  138.2387  160.6338 C.2     1  UNL1        0.2495
      3 O         143.7758  137.8243  160.6776 O.2     1  UNL1       -0.2698
      4 H         140.6835  138.6325  159.2869 H       1  UNL1        0.1552
      5 N         142.9804  140.5823  157.8197 N.pl3   1  UNL1       -0.3560
      6 C         143.0402  139.1789  157.2935 C.ar    1  UNL1        0.0552
      7 C         143.7756  138.8864  156.0193 C.ar    1  UNL1        0.0153
      8 C         143.8354  137.4830  155.4931 C.ar    1  UNL1        0.0013
      9 C         143.1598  136.3722  156.2411 C.ar    1  UNL1        0.0013
     10 C         142.4244  136.6647  157.5153 C.ar    1  UNL1        0.0159
     11 C         142.3646  138.0680  158.0415 C.ar    1  UNL1        0.0636
     12 H         143.4239  141.3114  157.3287 H       1  UNL1        0.1424
     13 H         142.4978  140.7743  158.6560 H       1  UNL1        0.1424
     14 C         143.2196  134.9687  155.7149 C.ar    1  UNL1        0.0002
     15 C         142.4829  134.6063  154.4595 C.ar    1  UNL1        0.0023
     16 C         142.5427  133.2028  153.9334 C.ar    1  UNL1        0.0296
     17 C         143.3392  132.1618  154.6627 C.ar    1  UNL1        0.1401
     18 F         143.3989  130.7584  154.1366 F       1  UNL1       -0.2042
     19 C         144.0758  132.5242  155.9181 C.ar    1  UNL1        0.0296
     20 C         144.0160  133.9276  156.4442 C.ar    1  UNL1        0.0023
     21 C         141.5996  138.5311  161.9081 C.ar    1  UNL1        0.0537
     22 C         141.7158  137.5937  163.0733 C.ar    1  UNL1        0.0042
     23 C         140.9805  137.8863  164.3475 C.ar    1  UNL1       -0.0028
     24 C         140.1289  139.1163  164.4566 C.ar    1  UNL1       -0.0061
     25 C         140.0127  140.0537  163.2914 C.ar    1  UNL1       -0.0028
     26 C         140.7480  139.7612  162.0171 C.ar    1  UNL1        0.0042
     27 C         139.3936  139.4088  165.7308 C.3     1  UNL1        0.0991
     28 N         140.0931  140.1126  166.8558 N.3     1  UNL1       -0.2690
     29 C         139.5590  140.0080  168.2535 C.3     1  UNL1        0.0724
     30 C         140.2585  140.7118  169.3784 C.3     1  UNL1        0.0188
     31 C         141.4922  141.5202  169.1055 C.3     1  UNL1        0.0185
     32 C         142.7291  142.3603  168.9863 C.3     1  UNL1        0.0185
     33 C         143.0790  142.8667  170.3542 C.3     1  UNL1        0.0686
     34 N         142.0583  142.3396  171.3188 N.3     1  UNL1       -0.2975
     35 C         141.0776  141.5074  170.5470 C.3     1  UNL1        0.0686
     36 C         142.0264  141.6248  167.7078 C.3     1  UNL1        0.0188
     37 C         141.3268  140.9210  166.5829 C.3     1  UNL1        0.0724
     38 H         141.5742  143.1163  171.7692 H       1  UNL1        0.1232
@<TRIPOS>BOND
     1     5     6    1
     2     6     7   ar
     3     7     8   ar
     4     8     9   ar
     5     9    14    1
     6    14    15   ar
     7    15    16   ar
     8    16    17   ar
     9    17    18    1
    10    17    19   ar
    11    19    20   ar
    12     9    10   ar
    13    10    11   ar
    14    11     1    1
    15     1     2   am
    16     2     3    2
    17     2    21    1
    18    21    22   ar
    19    22    23   ar
    20    23    24   ar
    21    24    27    1
    22    27    28    1
    23    28    29    1
    24    29    30    1
    25    30    31    1
    26    31    32    1
    27    32    33    1
    28    33    34    1
    29    34    35    1
    30    31    36    1
    31    36    37    1
    32    24    25   ar
    33    25    26   ar
    34    11     6   ar
    35    26    21   ar
    36    20    14   ar
    37    37    28    1
    38    35    31    1
    39     5    12    1
    40     5    13    1
    41     1     4    1
    42    34    38    1
