@<TRIPOS>MOLECULE
*****
 34 37 0 0 0
SMALL
GASTEIGER

@<TRIPOS>ATOM
      1 N         140.1708  144.6393  158.3017 N.3     1  UNL1       -0.1427
      2 C         139.4446  143.3299  158.2122 C.3     1  UNL1        0.0985
      3 C         139.2540  142.4924  159.4419 C.3     1  UNL1        0.0352
      4 C         139.7896  142.9644  160.7611 C.3     1  UNL1        0.0604
      5 C         140.5158  144.2738  160.8506 C.3     1  UNL1        0.0352
      6 C         140.7064  145.1112  159.6209 C.3     1  UNL1        0.0985
      7 N         139.5990  142.1269  161.9909 N.3     1  UNL1       -0.2736
      8 C         138.8350  142.6741  163.1600 C.3     1  UNL1        0.0758
      9 C         138.6443  141.8366  164.3898 C.3     1  UNL1        0.0609
     10 C         139.2177  140.4518  164.4504 C.3     1  UNL1        0.1687
     11 C         139.9818  139.9046  163.2812 C.3     1  UNL1        0.0609
     12 C         140.1724  140.7421  162.0515 C.3     1  UNL1        0.0758
     13 O         139.0271  139.6143  165.6801 O.3     1  UNL1       -0.4790
     14 C         140.0090  139.7070  166.8102 C.ar    1  UNL1        0.1393
     15 C         141.4726  139.5062  166.5505 C.ar    1  UNL1        0.0378
     16 C         142.4546  139.5989  167.6807 C.ar    1  UNL1        0.0154
     17 C         141.9728  139.8925  169.0706 C.ar    1  UNL1        0.0684
     18 CL        142.9547  139.9852  170.2007 Cl      1  UNL1       -0.0814
     19 C         140.5092  140.0933  169.3303 C.ar    1  UNL1        0.0712
     20 CL        140.0275  140.3869  170.7201 Cl      1  UNL1       -0.0813
     21 C         139.5273  140.0006  168.2002 C.ar    1  UNL1        0.0491
     22 S         140.3615  145.4768  157.0719 S.O2    1  UNL1        0.1153
     23 O         141.5365  146.1525  157.7143 O.2     1  UNL1       -0.1378
     24 O         139.1865  144.8011  156.4295 O.2     1  UNL1       -0.1378
     25 O         138.7544  147.9825  156.6995 O.2     1  UNL1       -0.2685
     26 C         139.7486  147.5671  155.6560 C.2     1  UNL1        0.2651
     27 N         140.5521  146.3143  155.8422 N.am    1  UNL1       -0.1714
     28 H         141.2047  146.0417  155.1573 H       1  UNL1        0.1779
     29 C         139.9393  148.4047  154.4262 C.ar    1  UNL1        0.0549
     30 C         139.4509  149.8227  154.4014 C.ar    1  UNL1        0.0046
     31 C         139.6416  150.6601  153.1716 C.ar    1  UNL1        0.0001
     32 C         140.3208  150.0795  151.9668 C.ar    1  UNL1        0.0000
     33 C         140.8092  148.6615  151.9916 C.ar    1  UNL1        0.0001
     34 C         140.6185  147.8241  153.2214 C.ar    1  UNL1        0.0046
@<TRIPOS>BOND
     1    25    26    2
     2    26    27   am
     3    27    22    1
     4    22    23    2
     5    22    24    2
     6    22     1    1
     7     1     2    1
     8     2     3    1
     9     3     4    1
    10     4     7    1
    11     7     8    1
    12     8     9    1
    13     9    10    1
    14    10    13    1
    15    13    14    1
    16    14    15   ar
    17    15    16   ar
    18    16    17   ar
    19    17    18    1
    20    17    19   ar
    21    19    20    1
    22    19    21   ar
    23    10    11    1
    24    11    12    1
    25     4     5    1
    26     5     6    1
    27    26    29    1
    28    29    30   ar
    29    30    31   ar
    30    31    32   ar
    31    32    33   ar
    32    33    34   ar
    33     6     1    1
    34    34    29   ar
    35    12     7    1
    36    21    14   ar
    37    27    28    1
@<TRIPOS>MOLECULE
*****
 34 37 0 0 0
SMALL
GASTEIGER

@<TRIPOS>ATOM
      1 N         140.2198  144.4999  158.6053 N.3     1  UNL1       -0.1427
      2 C         140.3315  145.2078  159.9230 C.3     1  UNL1        0.0985
      3 C         140.1422  144.4468  161.2016 C.3     1  UNL1        0.0352
      4 C         139.8412  142.9778  161.1625 C.3     1  UNL1        0.0604
      5 C         139.7296  142.2699  159.8448 C.3     1  UNL1        0.0352
      6 C         139.9189  143.0310  158.5662 C.3     1  UNL1        0.0985
      7 N         139.6519  142.2167  162.4412 N.3     1  UNL1       -0.2736
      8 C         140.3966  140.9346  162.6682 C.3     1  UNL1        0.0758
      9 C         140.2073  140.1735  163.9469 C.3     1  UNL1        0.0609
     10 C         139.2733  140.6946  164.9986 C.3     1  UNL1        0.1687
     11 C         138.5285  141.9768  164.7715 C.3     1  UNL1        0.0609
     12 C         138.7178  142.7378  163.4929 C.3     1  UNL1        0.0758
     13 O         139.0839  139.9336  166.2772 O.3     1  UNL1       -0.4790
     14 C         139.7717  140.3892  167.5299 C.ar    1  UNL1        0.1393
     15 C         139.1547  140.1098  168.8683 C.ar    1  UNL1        0.0378
     16 C         139.8425  140.5654  170.1211 C.ar    1  UNL1        0.0154
     17 C         141.1473  141.3003  170.0354 C.ar    1  UNL1        0.0684
     18 CL        141.8351  141.7559  171.2882 Cl      1  UNL1       -0.0814
     19 C         141.7644  141.5796  168.6971 C.ar    1  UNL1        0.0712
     20 CL        143.0692  142.3145  168.6114 Cl      1  UNL1       -0.0813
     21 C         141.0766  141.1241  167.4443 C.ar    1  UNL1        0.0491
     22 S         140.4092  145.2610  157.3266 S.O2    1  UNL1        0.1153
     23 O         139.2426  144.5368  156.7229 O.2     1  UNL1       -0.1378
     24 O         141.5758  145.9852  157.9303 O.2     1  UNL1       -0.1378
     25 O         138.8559  147.7804  156.8365 O.2     1  UNL1       -0.2685
     26 C         139.8218  147.2817  155.8029 C.2     1  UNL1        0.2651
     27 N         140.5984  146.0220  156.0480 N.am    1  UNL1       -0.1714
     28 H         141.2324  145.6948  155.3696 H       1  UNL1        0.1779
     29 C         140.0111  148.0428  154.5242 C.ar    1  UNL1        0.0549
     30 C         139.5327  149.4603  154.4172 C.ar    1  UNL1        0.0046
     31 C         139.7220  150.2213  153.1385 C.ar    1  UNL1        0.0001
     32 C         140.3898  149.5646  151.9668 C.ar    1  UNL1        0.0000
     33 C         140.8682  148.1471  152.0738 C.ar    1  UNL1        0.0001
     34 C         140.6789  147.3861  153.3525 C.ar    1  UNL1        0.0046
@<TRIPOS>BOND
     1    25    26    2
     2    26    27   am
     3    27    22    1
     4    22    23    2
     5    22    24    2
     6    22     1    1
     7     1     2    1
     8     2     3    1
     9     3     4    1
    10     4     7    1
    11     7     8    1
    12     8     9    1
    13     9    10    1
    14    10    13    1
    15    13    14    1
    16    14    15   ar
    17    15    16   ar
    18    16    17   ar
    19    17    18    1
    20    17    19   ar
    21    19    20    1
    22    19    21   ar
    23    10    11    1
    24    11    12    1
    25     4     5    1
    26     5     6    1
    27    26    29    1
    28    29    30   ar
    29    30    31   ar
    30    31    32   ar
    31    32    33   ar
    32    33    34   ar
    33     6     1    1
    34    34    29   ar
    35    12     7    1
    36    21    14   ar
    37    27    28    1
@<TRIPOS>MOLECULE
*****
 34 37 0 0 0
SMALL
GASTEIGER

@<TRIPOS>ATOM
      1 N         141.0599  142.7580  162.8710 N.3     1  UNL1       -0.1427
      2 C         141.5374  144.1460  162.5621 C.3     1  UNL1        0.0985
      3 C         141.4332  144.6814  161.1648 C.3     1  UNL1        0.0352
      4 C         140.8515  143.8287  160.0764 C.3     1  UNL1        0.0604
      5 C         140.3741  142.4407  160.3853 C.3     1  UNL1        0.0352
      6 C         140.4783  141.9054  161.7826 C.3     1  UNL1        0.0985
      7 N         140.7473  144.3641  158.6790 N.3     1  UNL1       -0.2736
      8 C         141.8113  145.2760  158.1440 C.3     1  UNL1        0.0758
      9 C         141.7071  145.8114  156.7466 C.3     1  UNL1        0.0609
     10 C         140.5389  145.4349  155.8844 C.3     1  UNL1        0.1687
     11 C         139.4749  144.5229  156.4195 C.3     1  UNL1        0.0609
     12 C         139.5791  143.9875  157.8168 C.3     1  UNL1        0.0758
     13 O         140.4347  145.9702  154.4871 O.3     1  UNL1       -0.4790
     14 C         140.1279  147.4209  154.2607 C.ar    1  UNL1        0.1393
     15 C         140.6295  148.1099  153.0263 C.ar    1  UNL1        0.0378
     16 C         140.3226  149.5607  152.8000 C.ar    1  UNL1        0.0154
     17 C         139.5143  150.3224  153.8080 C.ar    1  UNL1        0.0684
     18 CL        139.2075  151.7731  153.5817 Cl      1  UNL1       -0.0814
     19 C         139.0127  149.6335  155.0424 C.ar    1  UNL1        0.0712
     20 CL        138.2043  150.3952  156.0505 Cl      1  UNL1       -0.0813
     21 C         139.3195  148.1828  155.2688 C.ar    1  UNL1        0.0491
     22 S         141.1641  142.2226  164.2684 S.O2    1  UNL1        0.1153
     23 O         141.3389  140.8359  163.7240 O.2     1  UNL1       -0.1378
     24 O         140.9893  143.6093  164.8128 O.2     1  UNL1       -0.1378
     25 O         143.8242  142.1531  165.6537 O.2     1  UNL1       -0.2685
     26 C         142.5984  141.6525  166.3583 C.2     1  UNL1        0.2651
     27 N         141.2683  141.6872  165.6656 N.am    1  UNL1       -0.1714
     28 H         140.4637  141.3586  166.1281 H       1  UNL1        0.1779
     29 C         142.7025  141.1170  167.7556 C.ar    1  UNL1        0.0549
     30 C         143.0917  142.0289  168.8812 C.ar    1  UNL1        0.0046
     31 C         143.1958  141.4934  170.2785 C.ar    1  UNL1        0.0001
     32 C         142.9108  140.0460  170.5502 C.ar    1  UNL1        0.0000
     33 C         142.5216  139.1341  169.4246 C.ar    1  UNL1        0.0001
     34 C         142.4175  139.6696  168.0273 C.ar    1  UNL1        0.0046
@<TRIPOS>BOND
     1    25    26    2
     2    26    27   am
     3    27    22    1
     4    22    23    2
     5    22    24    2
     6    22     1    1
     7     1     2    1
     8     2     3    1
     9     3     4    1
    10     4     7    1
    11     7     8    1
    12     8     9    1
    13     9    10    1
    14    10    13    1
    15    13    14    1
    16    14    15   ar
    17    15    16   ar
    18    16    17   ar
    19    17    18    1
    20    17    19   ar
    21    19    20    1
    22    19    21   ar
    23    10    11    1
    24    11    12    1
    25     4     5    1
    26     5     6    1
    27    26    29    1
    28    29    30   ar
    29    30    31   ar
    30    31    32   ar
    31    32    33   ar
    32    33    34   ar
    33     6     1    1
    34    34    29   ar
    35    12     7    1
    36    21    14   ar
    37    27    28    1
@<TRIPOS>MOLECULE
*****
 34 37 0 0 0
SMALL
GASTEIGER

@<TRIPOS>ATOM
      1 N         141.8606  136.2641  156.4298 N.3     1  UNL1       -0.1427
      2 C         142.6429  136.9226  157.5272 C.3     1  UNL1        0.0985
      3 C         142.0560  138.0835  158.2740 C.3     1  UNL1        0.0352
      4 C         140.6868  138.5859  157.9234 C.3     1  UNL1        0.0604
      5 C         139.9045  137.9273  156.8260 C.3     1  UNL1        0.0352
      6 C         140.4914  136.7664  156.0792 C.3     1  UNL1        0.0985
      7 N         140.0998  139.7469  158.6703 N.3     1  UNL1       -0.2736
      8 C         138.9270  139.5368  159.5814 C.3     1  UNL1        0.0758
      9 C         138.3401  140.6978  160.3283 C.3     1  UNL1        0.0609
     10 C         138.9261  142.0688  160.1639 C.3     1  UNL1        0.1687
     11 C         140.0990  142.2788  159.2527 C.3     1  UNL1        0.0609
     12 C         140.6858  141.1179  158.5059 C.3     1  UNL1        0.0758
     13 O         138.3392  143.2298  160.9107 O.3     1  UNL1       -0.4790
     14 C         138.6553  143.4236  162.3641 C.ar    1  UNL1        0.1393
     15 C         137.6703  144.1140  163.2603 C.ar    1  UNL1        0.0378
     16 C         137.9865  144.3077  164.7138 C.ar    1  UNL1        0.0154
     17 C         139.2876  143.8111  165.2711 C.ar    1  UNL1        0.0684
     18 CL        139.6036  144.0049  166.7245 Cl      1  UNL1       -0.0814
     19 C         140.2725  143.1207  164.3749 C.ar    1  UNL1        0.0712
     20 CL        141.5736  142.6241  164.9321 Cl      1  UNL1       -0.0813
     21 C         139.9565  142.9269  162.9215 C.ar    1  UNL1        0.0491
     22 S         142.4475  135.1031  155.6830 S.O2    1  UNL1        0.1153
     23 O         141.0980  134.7913  155.1073 O.2     1  UNL1       -0.1378
     24 O         143.7970  135.4149  156.2587 O.2     1  UNL1       -0.1378
     25 O         142.5336  132.3886  156.9574 O.2     1  UNL1       -0.2685
     26 C         143.0774  132.5849  155.5734 C.2     1  UNL1        0.2651
     27 N         143.0343  133.9421  154.9361 N.am    1  UNL1       -0.1714
     28 H         143.3913  134.0710  154.0277 H       1  UNL1        0.1779
     29 C         143.6643  131.4239  154.8264 C.ar    1  UNL1        0.0549
     30 C         143.4016  131.2668  153.3580 C.ar    1  UNL1        0.0046
     31 C         143.9885  130.1059  152.6112 C.ar    1  UNL1        0.0001
     32 C         144.8380  129.1021  153.3328 C.ar    1  UNL1        0.0000
     33 C         145.1006  129.2592  154.8012 C.ar    1  UNL1        0.0001
     34 C         144.5138  130.4201  155.5480 C.ar    1  UNL1        0.0046
@<TRIPOS>BOND
     1    25    26    2
     2    26    27   am
     3    27    22    1
     4    22    23    2
     5    22    24    2
     6    22     1    1
     7     1     2    1
     8     2     3    1
     9     3     4    1
    10     4     7    1
    11     7     8    1
    12     8     9    1
    13     9    10    1
    14    10    13    1
    15    13    14    1
    16    14    15   ar
    17    15    16   ar
    18    16    17   ar
    19    17    18    1
    20    17    19   ar
    21    19    20    1
    22    19    21   ar
    23    10    11    1
    24    11    12    1
    25     4     5    1
    26     5     6    1
    27    26    29    1
    28    29    30   ar
    29    30    31   ar
    30    31    32   ar
    31    32    33   ar
    32    33    34   ar
    33     6     1    1
    34    34    29   ar
    35    12     7    1
    36    21    14   ar
    37    27    28    1
@<TRIPOS>MOLECULE
*****
 34 37 0 0 0
SMALL
GASTEIGER

@<TRIPOS>ATOM
      1 N         140.3294  140.0370  162.6414 N.3     1  UNL1       -0.1427
      2 C         141.5286  140.4619  161.8470 C.3     1  UNL1        0.0985
      3 C         141.7966  139.8457  160.5059 C.3     1  UNL1        0.0352
      4 C         140.8653  138.8046  159.9593 C.3     1  UNL1        0.0604
      5 C         139.6661  138.3796  160.7538 C.3     1  UNL1        0.0352
      6 C         139.3981  138.9958  162.0948 C.3     1  UNL1        0.0985
      7 N         141.1333  138.1884  158.6182 N.3     1  UNL1       -0.2736
      8 C         139.9993  137.9326  157.6702 C.3     1  UNL1        0.0758
      9 C         140.2673  137.3164  156.3291 C.3     1  UNL1        0.0609
     10 C         141.6693  136.9560  155.9360 C.3     1  UNL1        0.1687
     11 C         142.8033  137.2118  156.8841 C.3     1  UNL1        0.0609
     12 C         142.5353  137.8280  158.2251 C.3     1  UNL1        0.0758
     13 O         141.9374  136.3398  154.5950 O.3     1  UNL1       -0.4790
     14 C         141.8677  134.8510  154.4263 C.ar    1  UNL1        0.1393
     15 C         141.4134  134.2643  153.1227 C.ar    1  UNL1        0.0378
     16 C         141.3437  132.7754  152.9540 C.ar    1  UNL1        0.0154
     17 C         141.7284  131.8733  154.0890 C.ar    1  UNL1        0.0684
     18 CL        141.6588  130.3844  153.9203 Cl      1  UNL1       -0.0814
     19 C         142.1828  132.4599  155.3926 C.ar    1  UNL1        0.0712
     20 CL        142.5675  131.5578  156.5275 Cl      1  UNL1       -0.0813
     21 C         142.2524  133.9488  155.5613 C.ar    1  UNL1        0.0491
     22 S         140.0614  140.6532  163.9825 S.O2    1  UNL1        0.1153
     23 O         141.0713  141.7236  163.6925 O.2     1  UNL1       -0.1378
     24 O         139.0515  139.5827  164.2726 O.2     1  UNL1       -0.1378
     25 O         141.6304  139.7669  166.3811 O.2     1  UNL1       -0.2685
     26 C         140.5779  140.8262  166.5229 C.2     1  UNL1        0.2651
     27 N         139.7935  141.2694  165.3236 N.am    1  UNL1       -0.1714
     28 H         139.1027  141.9646  165.4167 H       1  UNL1        0.1779
     29 C         140.3099  141.4425  167.8640 C.ar    1  UNL1        0.0549
     30 C         140.7253  142.8580  168.1354 C.ar    1  UNL1        0.0046
     31 C         140.4573  143.4742  169.4764 C.ar    1  UNL1        0.0001
     32 C         139.7739  142.6749  170.5460 C.ar    1  UNL1        0.0000
     33 C         139.3585  141.2594  170.2746 C.ar    1  UNL1        0.0001
     34 C         139.6265  140.6432  168.9336 C.ar    1  UNL1        0.0046
@<TRIPOS>BOND
     1    25    26    2
     2    26    27   am
     3    27    22    1
     4    22    23    2
     5    22    24    2
     6    22     1    1
     7     1     2    1
     8     2     3    1
     9     3     4    1
    10     4     7    1
    11     7     8    1
    12     8     9    1
    13     9    10    1
    14    10    13    1
    15    13    14    1
    16    14    15   ar
    17    15    16   ar
    18    16    17   ar
    19    17    18    1
    20    17    19   ar
    21    19    20    1
    22    19    21   ar
    23    10    11    1
    24    11    12    1
    25     4     5    1
    26     5     6    1
    27    26    29    1
    28    29    30   ar
    29    30    31   ar
    30    31    32   ar
    31    32    33   ar
    32    33    34   ar
    33     6     1    1
    34    34    29   ar
    35    12     7    1
    36    21    14   ar
    37    27    28    1
@<TRIPOS>MOLECULE
*****
 34 37 0 0 0
SMALL
GASTEIGER

@<TRIPOS>ATOM
      1 N         140.1489  144.8777  157.6524 N.3     1  UNL1       -0.1427
      2 C         139.3202  143.6399  157.4772 C.3     1  UNL1        0.0985
      3 C         139.2890  142.5992  158.5570 C.3     1  UNL1        0.0352
      4 C         140.0866  142.7964  159.8119 C.3     1  UNL1        0.0604
      5 C         140.9154  144.0343  159.9871 C.3     1  UNL1        0.0352
      6 C         140.9466  145.0750  158.9073 C.3     1  UNL1        0.0985
      7 N         140.0555  141.7556  160.8918 N.3     1  UNL1       -0.2736
      8 C         139.1522  141.9308  162.0764 C.3     1  UNL1        0.0758
      9 C         139.1210  140.8901  163.1562 C.3     1  UNL1        0.0609
     10 C         139.9931  139.6742  163.0513 C.3     1  UNL1        0.1687
     11 C         140.8964  139.4990  161.8666 C.3     1  UNL1        0.0609
     12 C         140.9276  140.5397  160.7869 C.3     1  UNL1        0.0758
     13 O         139.9620  138.6334  164.1310 O.3     1  UNL1       -0.4790
     14 C         139.6885  139.0335  165.5506 C.ar    1  UNL1        0.1393
     15 C         138.3638  138.7144  166.1778 C.ar    1  UNL1        0.0378
     16 C         138.0904  139.1145  167.5974 C.ar    1  UNL1        0.0154
     17 C         139.1416  139.8336  168.3897 C.ar    1  UNL1        0.0684
     18 CL        138.8681  140.2337  169.8093 Cl      1  UNL1       -0.0814
     19 C         140.4663  140.1527  167.7625 C.ar    1  UNL1        0.0712
     20 CL        141.5175  140.8718  168.5548 Cl      1  UNL1       -0.0813
     21 C         140.7398  139.7526  166.3430 C.ar    1  UNL1        0.0491
     22 S         140.1801  145.9185  156.5725 S.O2    1  UNL1        0.1153
     23 O         138.8719  145.4094  156.0442 O.2     1  UNL1       -0.1378
     24 O         141.4884  146.4276  157.1009 O.2     1  UNL1       -0.1378
     25 O         138.6303  148.4662  156.8996 O.2     1  UNL1       -0.2685
     26 C         139.4363  148.2330  155.6563 C.2     1  UNL1        0.2651
     27 N         140.2113  146.9592  155.4928 N.am    1  UNL1       -0.1714
     28 H         140.7403  146.8061  154.6767 H       1  UNL1        0.1779
     29 C         139.4675  149.2738  154.5764 C.ar    1  UNL1        0.0549
     30 C         139.9681  148.9194  153.2076 C.ar    1  UNL1        0.0046
     31 C         139.9993  149.9601  152.1278 C.ar    1  UNL1        0.0001
     32 C         139.5298  151.3551  152.4169 C.ar    1  UNL1        0.0000
     33 C         139.0291  151.7094  153.7857 C.ar    1  UNL1        0.0001
     34 C         138.9980  150.6688  154.8655 C.ar    1  UNL1        0.0046
@<TRIPOS>BOND
     1    25    26    2
     2    26    27   am
     3    27    22    1
     4    22    23    2
     5    22    24    2
     6    22     1    1
     7     1     2    1
     8     2     3    1
     9     3     4    1
    10     4     7    1
    11     7     8    1
    12     8     9    1
    13     9    10    1
    14    10    13    1
    15    13    14    1
    16    14    15   ar
    17    15    16   ar
    18    16    17   ar
    19    17    18    1
    20    17    19   ar
    21    19    20    1
    22    19    21   ar
    23    10    11    1
    24    11    12    1
    25     4     5    1
    26     5     6    1
    27    26    29    1
    28    29    30   ar
    29    30    31   ar
    30    31    32   ar
    31    32    33   ar
    32    33    34   ar
    33     6     1    1
    34    34    29   ar
    35    12     7    1
    36    21    14   ar
    37    27    28    1
@<TRIPOS>MOLECULE
*****
 34 37 0 0 0
SMALL
GASTEIGER

@<TRIPOS>ATOM
      1 N         141.9902  135.8816  156.0977 N.3     1  UNL1       -0.1427
      2 C         142.7738  136.5720  157.1743 C.3     1  UNL1        0.0985
      3 C         142.2241  137.8045  157.8289 C.3     1  UNL1        0.0352
      4 C         140.8907  138.3467  157.4068 C.3     1  UNL1        0.0604
      5 C         140.1071  137.6563  156.3302 C.3     1  UNL1        0.0352
      6 C         140.6568  136.4237  155.6756 C.3     1  UNL1        0.0985
      7 N         140.3410  139.5793  158.0614 N.3     1  UNL1       -0.2736
      8 C         141.1899  140.8109  158.1740 C.3     1  UNL1        0.0758
      9 C         140.6402  142.0435  158.8286 C.3     1  UNL1        0.0609
     10 C         139.2415  142.0446  159.3707 C.3     1  UNL1        0.1687
     11 C         138.3926  140.8130  159.2581 C.3     1  UNL1        0.0609
     12 C         138.9423  139.5804  158.6035 C.3     1  UNL1        0.0758
     13 O         138.6918  143.2771  160.0253 O.3     1  UNL1       -0.4790
     14 C         138.8753  143.4890  161.4988 C.ar    1  UNL1        0.1393
     15 C         137.8243  143.0196  162.4607 C.ar    1  UNL1        0.0378
     16 C         138.0079  143.2316  163.9343 C.ar    1  UNL1        0.0154
     17 C         139.2423  143.9129  164.4460 C.ar    1  UNL1        0.0684
     18 CL        139.4259  144.1248  165.9195 Cl      1  UNL1       -0.0814
     19 C         140.2933  144.3823  163.4841 C.ar    1  UNL1        0.0712
     20 CL        141.5278  145.0636  163.9958 Cl      1  UNL1       -0.0813
     21 C         140.1098  144.1704  162.0106 C.ar    1  UNL1        0.0491
     22 S         142.5399  134.6489  155.4431 S.O2    1  UNL1        0.1153
     23 O         143.9301  135.1943  155.5836 O.2     1  UNL1       -0.1378
     24 O         141.1497  134.1035  155.3025 O.2     1  UNL1       -0.1378
     25 O         143.2142  132.2426  157.1029 O.2     1  UNL1       -0.2685
     26 C         143.4268  132.2132  155.6184 C.2     1  UNL1        0.2651
     27 N         143.0896  133.4163  154.7885 N.am    1  UNL1       -0.1714
     28 H         143.2292  133.3970  153.8141 H       1  UNL1        0.1779
     29 C         143.9765  130.9806  154.9637 C.ar    1  UNL1        0.0549
     30 C         143.8175  130.7821  153.4855 C.ar    1  UNL1        0.0046
     31 C         144.3673  129.5495  152.8309 C.ar    1  UNL1        0.0001
     32 C         145.0761  128.5155  153.6546 C.ar    1  UNL1        0.0000
     33 C         145.2351  128.7140  155.1328 C.ar    1  UNL1        0.0001
     34 C         144.6853  129.9466  155.7874 C.ar    1  UNL1        0.0046
@<TRIPOS>BOND
     1    25    26    2
     2    26    27   am
     3    27    22    1
     4    22    23    2
     5    22    24    2
     6    22     1    1
     7     1     2    1
     8     2     3    1
     9     3     4    1
    10     4     7    1
    11     7     8    1
    12     8     9    1
    13     9    10    1
    14    10    13    1
    15    13    14    1
    16    14    15   ar
    17    15    16   ar
    18    16    17   ar
    19    17    18    1
    20    17    19   ar
    21    19    20    1
    22    19    21   ar
    23    10    11    1
    24    11    12    1
    25     4     5    1
    26     5     6    1
    27    26    29    1
    28    29    30   ar
    29    30    31   ar
    30    31    32   ar
    31    32    33   ar
    32    33    34   ar
    33     6     1    1
    34    34    29   ar
    35    12     7    1
    36    21    14   ar
    37    27    28    1
@<TRIPOS>MOLECULE
*****
 34 37 0 0 0
SMALL
GASTEIGER

@<TRIPOS>ATOM
      1 N         141.7870  138.1543  158.5797 N.3     1  UNL1       -0.1427
      2 C         140.7259  139.1323  158.9890 C.3     1  UNL1        0.0985
      3 C         140.8495  139.8732  160.2873 C.3     1  UNL1        0.0352
      4 C         142.0342  139.6362  161.1763 C.3     1  UNL1        0.0604
      5 C         143.0953  138.6582  160.7670 C.3     1  UNL1        0.0352
      6 C         142.9717  137.9173  159.4687 C.3     1  UNL1        0.0985
      7 N         142.1577  140.3772  162.4747 N.3     1  UNL1       -0.2736
      8 C         143.4393  140.3200  163.2519 C.3     1  UNL1        0.0758
      9 C         143.5628  141.0610  164.5503 C.3     1  UNL1        0.0609
     10 C         142.4047  141.8592  165.0713 C.3     1  UNL1        0.1687
     11 C         141.1230  141.9165  164.2940 C.3     1  UNL1        0.0609
     12 C         140.9995  141.1755  162.9957 C.3     1  UNL1        0.0758
     13 O         142.5282  142.6002  166.3696 O.3     1  UNL1       -0.4790
     14 C         141.9610  142.0103  167.6267 C.ar    1  UNL1        0.1393
     15 C         140.8343  142.7003  168.3370 C.ar    1  UNL1        0.0378
     16 C         140.2671  142.1104  169.5942 C.ar    1  UNL1        0.0154
     17 C         140.8265  140.8305  170.1409 C.ar    1  UNL1        0.0684
     18 CL        140.2593  140.2406  171.3980 Cl      1  UNL1       -0.0814
     19 C         141.9532  140.1405  169.4306 C.ar    1  UNL1        0.0712
     20 CL        142.5126  138.8607  169.9773 Cl      1  UNL1       -0.0813
     21 C         142.5204  140.7304  168.1735 C.ar    1  UNL1        0.0491
     22 S         141.6635  137.4133  157.2813 S.O2    1  UNL1        0.1153
     23 O         140.1789  137.3216  157.4749 O.2     1  UNL1       -0.1378
     24 O         143.1481  137.5049  157.0877 O.2     1  UNL1       -0.1378
     25 O         142.7339  134.6212  157.0399 O.2     1  UNL1       -0.2685
     26 C         142.0751  135.2762  155.8623 C.2     1  UNL1        0.2651
     27 N         141.5399  136.6723  155.9830 N.am    1  UNL1       -0.1714
     28 H         141.1075  137.1022  155.2101 H       1  UNL1        0.1779
     29 C         141.9515  134.5352  154.5639 C.ar    1  UNL1        0.0549
     30 C         141.8411  135.2942  153.2748 C.ar    1  UNL1        0.0046
     31 C         141.7175  134.5532  151.9765 C.ar    1  UNL1        0.0001
     32 C         141.7043  133.0533  151.9673 C.ar    1  UNL1        0.0000
     33 C         141.8147  132.2943  153.2564 C.ar    1  UNL1        0.0001
     34 C         141.9383  133.0353  154.5547 C.ar    1  UNL1        0.0046
@<TRIPOS>BOND
     1    25    26    2
     2    26    27   am
     3    27    22    1
     4    22    23    2
     5    22    24    2
     6    22     1    1
     7     1     2    1
     8     2     3    1
     9     3     4    1
    10     4     7    1
    11     7     8    1
    12     8     9    1
    13     9    10    1
    14    10    13    1
    15    13    14    1
    16    14    15   ar
    17    15    16   ar
    18    16    17   ar
    19    17    18    1
    20    17    19   ar
    21    19    20    1
    22    19    21   ar
    23    10    11    1
    24    11    12    1
    25     4     5    1
    26     5     6    1
    27    26    29    1
    28    29    30   ar
    29    30    31   ar
    30    31    32   ar
    31    32    33   ar
    32    33    34   ar
    33     6     1    1
    34    34    29   ar
    35    12     7    1
    36    21    14   ar
    37    27    28    1
@<TRIPOS>MOLECULE
*****
 34 37 0 0 0
SMALL
GASTEIGER

@<TRIPOS>ATOM
      1 N         142.2795  134.8109  156.0030 N.3     1  UNL1       -0.1427
      2 C         141.1167  135.5771  155.4455 C.3     1  UNL1        0.0985
      3 C         140.7896  136.9392  155.9819 C.3     1  UNL1        0.0352
      4 C         141.6252  137.5350  157.0758 C.3     1  UNL1        0.0604
      5 C         142.7880  136.7688  157.6333 C.3     1  UNL1        0.0352
      6 C         143.1151  135.4068  157.0969 C.3     1  UNL1        0.0985
      7 N         141.2980  138.8971  157.6122 N.3     1  UNL1       -0.2736
      8 C         140.6493  139.0375  158.9573 C.3     1  UNL1        0.0758
      9 C         140.3221  140.3997  159.4938 C.3     1  UNL1        0.0609
     10 C         140.6437  141.6213  158.6850 C.3     1  UNL1        0.1687
     11 C         141.2924  141.4809  157.3397 C.3     1  UNL1        0.0609
     12 C         141.6196  140.1188  156.8034 C.3     1  UNL1        0.0758
     13 O         140.3165  142.9834  159.2213 O.3     1  UNL1       -0.4790
     14 C         141.0781  143.5313  160.3916 C.ar    1  UNL1        0.1393
     15 C         140.4226  144.5086  161.3218 C.ar    1  UNL1        0.0378
     16 C         141.1843  145.0566  162.4922 C.ar    1  UNL1        0.0154
     17 C         142.6013  144.6273  162.7323 C.ar    1  UNL1        0.0684
     18 CL        143.3629  145.1752  163.9027 Cl      1  UNL1       -0.0814
     19 C         143.2568  143.6500  161.8021 C.ar    1  UNL1        0.0712
     20 CL        144.6738  143.2207  162.0422 Cl      1  UNL1       -0.0813
     21 C         142.4952  143.1020  160.6318 C.ar    1  UNL1        0.0491
     22 S         142.6066  133.4488  155.4666 S.O2    1  UNL1        0.1153
     23 O         142.3548  132.8551  156.8208 O.2     1  UNL1       -0.1378
     24 O         142.8585  134.0425  154.1123 O.2     1  UNL1       -0.1378
     25 O         145.2284  132.1588  156.1466 O.2     1  UNL1       -0.2685
     26 C         144.2447  131.4418  155.2703 C.2     1  UNL1        0.2651
     27 N         142.9338  132.0867  154.9303 N.am    1  UNL1       -0.1714
     28 H         142.2881  131.6161  154.3551 H       1  UNL1        0.1779
     29 C         144.5718  130.0796  154.7339 C.ar    1  UNL1        0.0549
     30 C         144.9740  128.9808  155.6723 C.ar    1  UNL1        0.0046
     31 C         145.3011  127.6187  155.1359 C.ar    1  UNL1        0.0001
     32 C         145.2260  127.3555  153.6611 C.ar    1  UNL1        0.0000
     33 C         144.8238  128.4544  152.7227 C.ar    1  UNL1        0.0001
     34 C         144.4967  129.8164  153.2591 C.ar    1  UNL1        0.0046
@<TRIPOS>BOND
     1    25    26    2
     2    26    27   am
     3    27    22    1
     4    22    23    2
     5    22    24    2
     6    22     1    1
     7     1     2    1
     8     2     3    1
     9     3     4    1
    10     4     7    1
    11     7     8    1
    12     8     9    1
    13     9    10    1
    14    10    13    1
    15    13    14    1
    16    14    15   ar
    17    15    16   ar
    18    16    17   ar
    19    17    18    1
    20    17    19   ar
    21    19    20    1
    22    19    21   ar
    23    10    11    1
    24    11    12    1
    25     4     5    1
    26     5     6    1
    27    26    29    1
    28    29    30   ar
    29    30    31   ar
    30    31    32   ar
    31    32    33   ar
    32    33    34   ar
    33     6     1    1
    34    34    29   ar
    35    12     7    1
    36    21    14   ar
    37    27    28    1
