@<TRIPOS>MOLECULE
*****
 22 24 0 0 0
SMALL
GASTEIGER

@<TRIPOS>ATOM
      1 N         139.0747  143.7901  162.8981 N.am    1  UNL1       -0.2606
      2 C         138.1167  143.2504  161.8779 C.3     1  UNL1        0.1169
      3 C         137.8662  141.8060  162.1957 C.3     1  UNL1        0.1212
      4 N         138.6694  141.4531  163.4124 N.am    1  UNL1       -0.2413
      5 C         139.4163  142.6793  163.8466 C.2     1  UNL1        0.3111
      6 O         140.3421  142.7775  165.0226 O.2     1  UNL1       -0.2520
      7 C         138.7173  140.1097  164.0781 C.ar    1  UNL1        0.0562
      8 C         139.4151  138.9643  163.4065 C.ar    1  UNL1        0.0150
      9 C         139.4630  137.6210  164.0723 C.ar    1  UNL1        0.0021
     10 C         138.8131  137.4231  165.4096 C.ar    1  UNL1        0.0115
     11 C         138.1153  138.5686  166.0811 C.ar    1  UNL1        0.0589
     12 CL        137.4653  138.3706  167.4185 Cl      1  UNL1       -0.0822
     13 C         138.0674  139.9119  165.4154 C.ar    1  UNL1        0.0263
     14 C         139.5991  145.1942  162.9593 C.3     1  UNL1        0.1123
     15 C         140.9476  145.5167  162.3871 C.3     1  UNL1        0.0939
     16 C         145.6351  141.9619  163.5662 C.3     1  UNL1        0.0001
     17 C         144.4632  142.8506  163.2715 C.3     1  UNL1        0.0028
     18 C         143.6441  142.6263  162.0351 C.3     1  UNL1        0.0174
     19 C         142.4722  143.5150  161.7403 C.3     1  UNL1        0.0721
     20 N         142.1195  144.6280  162.6819 N.3     1  UNL1       -0.2712
     21 C         142.9385  144.8523  163.9183 C.3     1  UNL1        0.0721
     22 C         144.1104  143.9636  164.2131 C.3     1  UNL1        0.0174
@<TRIPOS>BOND
     1    16    17    1
     2    17    18    1
     3    18    19    1
     4    19    20    1
     5    20    15    1
     6    15    14    1
     7    14     1    1
     8     1     2    1
     9     2     3    1
    10     3     4    1
    11     4     7    1
    12     7     8   ar
    13     8     9   ar
    14     9    10   ar
    15    10    11   ar
    16    11    12    1
    17    11    13   ar
    18     4     5   am
    19     5     6    2
    20    20    21    1
    21    21    22    1
    22    22    17    1
    23     5     1   am
    24    13     7   ar
@<TRIPOS>MOLECULE
*****
 22 24 0 0 0
SMALL
GASTEIGER

@<TRIPOS>ATOM
      1 N         138.9199  139.6743  164.4733 N.am    1  UNL1       -0.2606
      2 C         138.2715  138.9244  165.5990 C.3     1  UNL1        0.1169
      3 C         138.8815  139.3993  166.8845 C.3     1  UNL1        0.1212
      4 N         139.9069  140.4427  166.5532 N.am    1  UNL1       -0.2413
      5 C         139.9306  140.6128  165.0631 C.2     1  UNL1        0.3111
      6 O         140.8105  141.5556  164.2972 O.2     1  UNL1       -0.2520
      7 C         140.7590  141.1858  167.5390 C.ar    1  UNL1        0.0562
      8 C         142.1780  140.7602  167.7745 C.ar    1  UNL1        0.0150
      9 C         143.0301  141.5033  168.7603 C.ar    1  UNL1        0.0021
     10 C         142.4632  142.6719  169.5106 C.ar    1  UNL1        0.0115
     11 C         141.0442  143.0974  169.2752 C.ar    1  UNL1        0.0589
     12 CL        140.4773  144.2661  170.0255 Cl      1  UNL1       -0.0822
     13 C         140.1921  142.3544  168.2894 C.ar    1  UNL1        0.0263
     14 C         138.6116  139.5140  163.0141 C.3     1  UNL1        0.1123
     15 C         137.7904  140.5484  162.3030 C.3     1  UNL1        0.0939
     16 C         139.7792  146.1942  161.8907 C.3     1  UNL1        0.0001
     17 C         139.2820  144.7828  161.9938 C.3     1  UNL1        0.0028
     18 C         138.2260  144.4311  162.9993 C.3     1  UNL1        0.0174
     19 C         137.7288  143.0197  163.1024 C.3     1  UNL1        0.0721
     20 N         138.2876  141.9599  162.1999 N.3     1  UNL1       -0.2712
     21 C         139.3436  142.3115  161.1944 C.3     1  UNL1        0.0721
     22 C         139.8408  143.7229  161.0913 C.3     1  UNL1        0.0174
@<TRIPOS>BOND
     1    16    17    1
     2    17    18    1
     3    18    19    1
     4    19    20    1
     5    20    15    1
     6    15    14    1
     7    14     1    1
     8     1     2    1
     9     2     3    1
    10     3     4    1
    11     4     7    1
    12     7     8   ar
    13     8     9   ar
    14     9    10   ar
    15    10    11   ar
    16    11    12    1
    17    11    13   ar
    18     4     5   am
    19     5     6    2
    20    20    21    1
    21    21    22    1
    22    22    17    1
    23     5     1   am
    24    13     7   ar
@<TRIPOS>MOLECULE
*****
 22 24 0 0 0
SMALL
GASTEIGER

@<TRIPOS>ATOM
      1 N         138.2490  141.0916  163.7843 N.am    1  UNL1       -0.2606
      2 C         138.2829  139.6114  163.5437 C.3     1  UNL1        0.1169
      3 C         139.1070  138.9841  164.6287 C.3     1  UNL1        0.1212
      4 N         139.5824  140.0766  165.5400 N.am    1  UNL1       -0.2413
      5 C         139.0522  141.3791  165.0182 C.2     1  UNL1        0.3111
      6 O         139.2843  142.7316  165.6238 O.2     1  UNL1       -0.2520
      7 C         140.4380  139.8980  166.7590 C.ar    1  UNL1        0.0562
      8 C         141.8821  139.5195  166.6130 C.ar    1  UNL1        0.0150
      9 C         142.7376  139.3409  167.8321 C.ar    1  UNL1        0.0021
     10 C         142.1490  139.5408  169.1972 C.ar    1  UNL1        0.0115
     11 C         140.7049  139.9192  169.3432 C.ar    1  UNL1        0.0589
     12 CL        140.1163  140.1190  170.7085 Cl      1  UNL1       -0.0822
     13 C         139.8494  140.0978  168.1242 C.ar    1  UNL1        0.0263
     14 C         137.5369  142.1062  162.9395 C.3     1  UNL1        0.1123
     15 C         138.2984  142.9012  161.9207 C.3     1  UNL1        0.0939
     16 C         143.7308  145.0701  163.2567 C.3     1  UNL1        0.0001
     17 C         142.3727  144.5278  162.9227 C.3     1  UNL1        0.0028
     18 C         142.2389  143.1644  162.3121 C.3     1  UNL1        0.0174
     19 C         140.8808  142.6221  161.9781 C.3     1  UNL1        0.0721
     20 N         139.6565  143.4434  162.2547 N.3     1  UNL1       -0.2712
     21 C         139.7903  144.8069  162.8654 C.3     1  UNL1        0.0721
     22 C         141.1484  145.3491  163.1994 C.3     1  UNL1        0.0174
@<TRIPOS>BOND
     1    16    17    1
     2    17    18    1
     3    18    19    1
     4    19    20    1
     5    20    15    1
     6    15    14    1
     7    14     1    1
     8     1     2    1
     9     2     3    1
    10     3     4    1
    11     4     7    1
    12     7     8   ar
    13     8     9   ar
    14     9    10   ar
    15    10    11   ar
    16    11    12    1
    17    11    13   ar
    18     4     5   am
    19     5     6    2
    20    20    21    1
    21    21    22    1
    22    22    17    1
    23     5     1   am
    24    13     7   ar
@<TRIPOS>MOLECULE
*****
 22 24 0 0 0
SMALL
GASTEIGER

@<TRIPOS>ATOM
      1 N         144.1926  140.3018  164.1975 N.am    1  UNL1       -0.2606
      2 C         143.9371  138.9749  163.5464 C.3     1  UNL1        0.1169
      3 C         142.6277  138.4518  164.0583 C.3     1  UNL1        0.1212
      4 N         142.0740  139.4555  165.0258 N.am    1  UNL1       -0.2413
      5 C         143.0411  140.5989  165.1119 C.2     1  UNL1        0.3111
      6 O         142.8844  141.8241  165.9628 O.2     1  UNL1       -0.2520
      7 C         140.7803  139.3367  165.7756 C.ar    1  UNL1        0.0562
      8 C         139.6113  138.6370  165.1482 C.ar    1  UNL1        0.0150
      9 C         138.3176  138.5182  165.8980 C.ar    1  UNL1        0.0021
     10 C         138.1930  139.0992  167.2753 C.ar    1  UNL1        0.0115
     11 C         139.3620  139.7989  167.9027 C.ar    1  UNL1        0.0589
     12 CL        139.2373  140.3799  169.2801 Cl      1  UNL1       -0.0822
     13 C         140.6557  139.9177  167.1529 C.ar    1  UNL1        0.0263
     14 C         145.3894  141.1779  163.9736 C.3     1  UNL1        0.1123
     15 C         145.3430  142.2603  162.9362 C.3     1  UNL1        0.0939
     16 C         140.4516  145.6934  162.3994 C.3     1  UNL1        0.0001
     17 C         141.6745  144.8352  162.5336 C.3     1  UNL1        0.0028
     18 C         141.8838  143.6771  161.6035 C.3     1  UNL1        0.0174
     19 C         143.1066  142.8189  161.7377 C.3     1  UNL1        0.0721
     20 N         144.1202  143.1186  162.8020 N.3     1  UNL1       -0.2712
     21 C         143.9109  144.2766  163.7321 C.3     1  UNL1        0.0721
     22 C         142.6880  145.1349  163.5979 C.3     1  UNL1        0.0174
@<TRIPOS>BOND
     1    16    17    1
     2    17    18    1
     3    18    19    1
     4    19    20    1
     5    20    15    1
     6    15    14    1
     7    14     1    1
     8     1     2    1
     9     2     3    1
    10     3     4    1
    11     4     7    1
    12     7     8   ar
    13     8     9   ar
    14     9    10   ar
    15    10    11   ar
    16    11    12    1
    17    11    13   ar
    18     4     5   am
    19     5     6    2
    20    20    21    1
    21    21    22    1
    22    22    17    1
    23     5     1   am
    24    13     7   ar
@<TRIPOS>MOLECULE
*****
 22 24 0 0 0
SMALL
GASTEIGER

@<TRIPOS>ATOM
      1 N         139.6775  144.0448  162.1777 N.am    1  UNL1       -0.2606
      2 C         138.9988  144.9575  163.1556 C.3     1  UNL1        0.1169
      3 C         138.6974  144.1677  164.3947 C.3     1  UNL1        0.1212
      4 N         139.1897  142.7668  164.1826 N.am    1  UNL1       -0.2413
      5 C         139.7955  142.6907  162.8124 C.2     1  UNL1        0.3111
      6 O         140.4110  141.4744  162.1868 O.2     1  UNL1       -0.2520
      7 C         139.0933  141.6397  165.1676 C.ar    1  UNL1        0.0562
      8 C         138.1956  140.4716  164.8853 C.ar    1  UNL1        0.0150
      9 C         138.0991  139.3445  165.8703 C.ar    1  UNL1        0.0021
     10 C         138.9004  139.3855  167.1377 C.ar    1  UNL1        0.0115
     11 C         139.7981  140.5536  167.4200 C.ar    1  UNL1        0.0589
     12 CL        140.5994  140.5945  168.6875 Cl      1  UNL1       -0.0822
     13 C         139.8945  141.6807  166.4350 C.ar    1  UNL1        0.0263
     14 C         140.1544  144.4201  160.8060 C.3     1  UNL1        0.1123
     15 C         141.5973  144.7630  160.5813 C.3     1  UNL1        0.0939
     16 C         145.8857  141.7639  163.5165 C.3     1  UNL1        0.0001
     17 C         144.8136  142.5137  162.7827 C.3     1  UNL1        0.0028
     18 C         144.2029  143.7396  163.3944 C.3     1  UNL1        0.0174
     19 C         143.1308  144.4893  162.6606 C.3     1  UNL1        0.0721
     20 N         142.6694  144.0132  161.3151 N.3     1  UNL1       -0.2712
     21 C         143.2801  142.7873  160.7034 C.3     1  UNL1        0.0721
     22 C         144.3522  142.0376  161.4372 C.3     1  UNL1        0.0174
@<TRIPOS>BOND
     1    16    17    1
     2    17    18    1
     3    18    19    1
     4    19    20    1
     5    20    15    1
     6    15    14    1
     7    14     1    1
     8     1     2    1
     9     2     3    1
    10     3     4    1
    11     4     7    1
    12     7     8   ar
    13     8     9   ar
    14     9    10   ar
    15    10    11   ar
    16    11    12    1
    17    11    13   ar
    18     4     5   am
    19     5     6    2
    20    20    21    1
    21    21    22    1
    22    22    17    1
    23     5     1   am
    24    13     7   ar
@<TRIPOS>MOLECULE
*****
 22 24 0 0 0
SMALL
GASTEIGER

@<TRIPOS>ATOM
      1 N         144.6389  140.7499  164.4482 N.am    1  UNL1       -0.2606
      2 C         144.5768  139.2557  164.3321 C.3     1  UNL1        0.1169
      3 C         143.4313  138.7727  165.1714 C.3     1  UNL1        0.1212
      4 N         142.7854  139.9684  165.8063 N.am    1  UNL1       -0.2413
      5 C         143.5317  141.1905  165.3594 C.2     1  UNL1        0.3111
      6 O         143.2248  142.6046  165.7542 O.2     1  UNL1       -0.2520
      7 C         141.6011  139.9461  166.7266 C.ar    1  UNL1        0.0562
      8 C         141.7470  140.4031  168.1479 C.ar    1  UNL1        0.0150
      9 C         140.5627  140.3808  169.0681 C.ar    1  UNL1        0.0021
     10 C         139.2325  139.9016  168.5672 C.ar    1  UNL1        0.0115
     11 C         139.0867  139.4446  167.1459 C.ar    1  UNL1        0.0589
     12 CL        137.7564  138.9654  166.6449 Cl      1  UNL1       -0.0822
     13 C         140.2709  139.4669  166.2256 C.ar    1  UNL1        0.0263
     14 C         145.6335  141.6463  163.7719 C.3     1  UNL1        0.1123
     15 C         145.2515  142.3823  162.5221 C.3     1  UNL1        0.0939
     16 C         140.2042  145.6230  162.3730 C.3     1  UNL1        0.0001
     17 C         141.4660  144.8129  162.4102 C.3     1  UNL1        0.0028
     18 C         142.6603  145.3190  163.1634 C.3     1  UNL1        0.0174
     19 C         143.9222  144.5088  163.2007 C.3     1  UNL1        0.0721
     20 N         143.9897  143.1925  162.4848 N.3     1  UNL1       -0.2712
     21 C         142.7954  142.6863  161.7316 C.3     1  UNL1        0.0721
     22 C         141.5335  143.4965  161.6943 C.3     1  UNL1        0.0174
@<TRIPOS>BOND
     1    16    17    1
     2    17    18    1
     3    18    19    1
     4    19    20    1
     5    20    15    1
     6    15    14    1
     7    14     1    1
     8     1     2    1
     9     2     3    1
    10     3     4    1
    11     4     7    1
    12     7     8   ar
    13     8     9   ar
    14     9    10   ar
    15    10    11   ar
    16    11    12    1
    17    11    13   ar
    18     4     5   am
    19     5     6    2
    20    20    21    1
    21    21    22    1
    22    22    17    1
    23     5     1   am
    24    13     7   ar
@<TRIPOS>MOLECULE
*****
 22 24 0 0 0
SMALL
GASTEIGER

@<TRIPOS>ATOM
      1 N         142.3313  138.0971  162.2674 N.am    1  UNL1       -0.2606
      2 C         141.0334  137.9571  161.5288 C.3     1  UNL1        0.1169
      3 C         139.9172  138.1549  162.5112 C.3     1  UNL1        0.1212
      4 N         140.5254  138.4172  163.8570 N.am    1  UNL1       -0.2413
      5 C         142.0174  138.3815  163.7065 C.2     1  UNL1        0.3111
      6 O         143.0195  138.5930  164.8023 O.2     1  UNL1       -0.2520
      7 C         139.7736  138.6707  165.1300 C.ar    1  UNL1        0.0562
      8 C         138.5492  137.8658  165.4510 C.ar    1  UNL1        0.0150
      9 C         137.7974  138.1193  166.7240 C.ar    1  UNL1        0.0021
     10 C         138.2700  139.1777  167.6760 C.ar    1  UNL1        0.0115
     11 C         139.4944  139.9826  167.3550 C.ar    1  UNL1        0.0589
     12 CL        139.9670  141.0411  168.3072 Cl      1  UNL1       -0.0822
     13 C         140.2462  139.7291  166.0820 C.ar    1  UNL1        0.0263
     14 C         143.7025  137.9744  161.6717 C.3     1  UNL1        0.1123
     15 C         144.2763  139.1053  160.8708 C.3     1  UNL1        0.0939
     16 C         144.0235  144.7131  162.9896 C.3     1  UNL1        0.0001
     17 C         144.0867  143.3111  162.4599 C.3     1  UNL1        0.0028
     18 C         144.8346  142.2555  163.2190 C.3     1  UNL1        0.0174
     19 C         144.8978  140.8536  162.6893 C.3     1  UNL1        0.0721
     20 N         144.2131  140.5073  161.4005 N.3     1  UNL1       -0.2712
     21 C         143.4652  141.5628  160.6413 C.3     1  UNL1        0.0721
     22 C         143.4020  142.9648  161.1711 C.3     1  UNL1        0.0174
@<TRIPOS>BOND
     1    16    17    1
     2    17    18    1
     3    18    19    1
     4    19    20    1
     5    20    15    1
     6    15    14    1
     7    14     1    1
     8     1     2    1
     9     2     3    1
    10     3     4    1
    11     4     7    1
    12     7     8   ar
    13     8     9   ar
    14     9    10   ar
    15    10    11   ar
    16    11    12    1
    17    11    13   ar
    18     4     5   am
    19     5     6    2
    20    20    21    1
    21    21    22    1
    22    22    17    1
    23     5     1   am
    24    13     7   ar
@<TRIPOS>MOLECULE
*****
 22 24 0 0 0
SMALL
GASTEIGER

@<TRIPOS>ATOM
      1 N         140.0253  138.5279  163.2863 N.am    1  UNL1       -0.2606
      2 C         141.4165  139.0336  163.0436 C.3     1  UNL1        0.1169
      3 C         141.9905  139.4620  164.3615 C.3     1  UNL1        0.1212
      4 N         140.9542  139.2211  165.4188 N.am    1  UNL1       -0.2413
      5 C         139.7395  138.6437  164.7544 C.2     1  UNL1        0.3111
      6 O         138.4634  138.2512  165.4378 O.2     1  UNL1       -0.2520
      7 C         141.1057  139.5072  166.8835 C.ar    1  UNL1        0.0562
      8 C         142.4484  139.3738  167.5387 C.ar    1  UNL1        0.0150
      9 C         142.5999  139.6599  169.0034 C.ar    1  UNL1        0.0021
     10 C         141.4088  140.0794  169.8127 C.ar    1  UNL1        0.0115
     11 C         140.0661  140.2129  169.1574 C.ar    1  UNL1        0.0589
     12 CL        138.8749  140.6324  169.9669 Cl      1  UNL1       -0.0822
     13 C         139.9145  139.9267  167.6928 C.ar    1  UNL1        0.0263
     14 C         139.0850  137.9991  162.2441 C.3     1  UNL1        0.1123
     15 C         138.0196  138.8883  161.6748 C.3     1  UNL1        0.0939
     16 C         138.0841  144.7734  162.8417 C.3     1  UNL1        0.0001
     17 C         138.0680  143.3022  162.5500 C.3     1  UNL1        0.0028
     18 C         137.3703  142.3597  163.4853 C.3     1  UNL1        0.0174
     19 C         137.3542  140.8884  163.1936 C.3     1  UNL1        0.0721
     20 N         138.0357  140.3596  161.9665 N.3     1  UNL1       -0.2712
     21 C         138.7334  141.3021  161.0312 C.3     1  UNL1        0.0721
     22 C         138.7495  142.7733  161.3229 C.3     1  UNL1        0.0174
@<TRIPOS>BOND
     1    16    17    1
     2    17    18    1
     3    18    19    1
     4    19    20    1
     5    20    15    1
     6    15    14    1
     7    14     1    1
     8     1     2    1
     9     2     3    1
    10     3     4    1
    11     4     7    1
    12     7     8   ar
    13     8     9   ar
    14     9    10   ar
    15    10    11   ar
    16    11    12    1
    17    11    13   ar
    18     4     5   am
    19     5     6    2
    20    20    21    1
    21    21    22    1
    22    22    17    1
    23     5     1   am
    24    13     7   ar
@<TRIPOS>MOLECULE
*****
 22 24 0 0 0
SMALL
GASTEIGER

@<TRIPOS>ATOM
      1 N         143.4424  140.2480  164.3482 N.am    1  UNL1       -0.2606
      2 C         143.0083  141.6153  163.9099 C.3     1  UNL1        0.1169
      3 C         142.1210  142.1843  164.9772 C.3     1  UNL1        0.1212
      4 N         142.0069  141.1687  166.0751 N.am    1  UNL1       -0.2413
      5 C         142.8235  139.9720  165.6865 C.2     1  UNL1        0.3111
      6 O         142.9917  138.7193  166.4941 O.2     1  UNL1       -0.2520
      7 C         141.2151  141.3226  167.3398 C.ar    1  UNL1        0.0562
      8 C         140.4266  140.1650  167.8767 C.ar    1  UNL1        0.0150
      9 C         139.6348  140.3190  169.1413 C.ar    1  UNL1        0.0021
     10 C         139.6315  141.6306  169.8691 C.ar    1  UNL1        0.0115
     11 C         140.4199  142.7882  169.3322 C.ar    1  UNL1        0.0589
     12 CL        140.4166  144.0999  170.0600 Cl      1  UNL1       -0.0822
     13 C         141.2117  142.6342  168.0675 C.ar    1  UNL1        0.0263
     14 C         144.3382  139.3198  163.5827 C.3     1  UNL1        0.1123
     15 C         143.7679  138.4461  162.5051 C.3     1  UNL1        0.0939
     16 C         137.8279  138.1528  161.7108 C.3     1  UNL1        0.0001
     17 C         139.3129  138.2261  161.9094 C.3     1  UNL1        0.0028
     18 C         140.1549  139.0446  160.9761 C.3     1  UNL1        0.0174
     19 C         141.6399  139.1180  161.1747 C.3     1  UNL1        0.0721
     20 N         142.2829  138.3728  162.3065 N.3     1  UNL1       -0.2712
     21 C         141.4409  137.5542  163.2398 C.3     1  UNL1        0.0721
     22 C         139.9559  137.4809  163.0412 C.3     1  UNL1        0.0174
@<TRIPOS>BOND
     1    16    17    1
     2    17    18    1
     3    18    19    1
     4    19    20    1
     5    20    15    1
     6    15    14    1
     7    14     1    1
     8     1     2    1
     9     2     3    1
    10     3     4    1
    11     4     7    1
    12     7     8   ar
    13     8     9   ar
    14     9    10   ar
    15    10    11   ar
    16    11    12    1
    17    11    13   ar
    18     4     5   am
    19     5     6    2
    20    20    21    1
    21    21    22    1
    22    22    17    1
    23     5     1   am
    24    13     7   ar
