@<TRIPOS>MOLECULE
*****
 33 38 0 0 0
SMALL
GASTEIGER

@<TRIPOS>ATOM
      1 O         138.6338  141.8141  160.2627 O.2     1  UNL1       -0.2463
      2 C         138.7828  140.8709  161.4196 C.ar    1  UNL1        0.3316
      3 N         138.1939  141.0530  162.7871 N.ar    1  UNL1       -0.2774
      4 C         138.5939  139.8747  163.6247 C.ar    1  UNL1        0.0798
      5 C         138.3048  139.5131  165.0514 C.ar    1  UNL1        0.0188
      6 C         138.8518  138.2412  165.6283 C.ar    1  UNL1        0.0016
      7 C         139.6879  137.3308  164.7785 C.ar    1  UNL1        0.0016
      8 C         139.9770  137.6924  163.3517 C.ar    1  UNL1        0.0188
      9 C         139.4300  138.9644  162.7748 C.ar    1  UNL1        0.0796
     10 N         139.5467  139.5801  161.4120 N.ar    1  UNL1       -0.2817
     11 C         140.2958  139.0057  160.2463 C.3     1  UNL1        0.0926
     12 C         139.5770  138.7153  158.9623 C.3     1  UNL1        0.0401
     13 C         140.3261  138.1410  157.7966 C.3     1  UNL1        0.0740
     14 N         141.7942  137.8569  157.9149 N.3     1  UNL1       -0.2726
     15 C         142.5132  138.1473  159.1990 C.3     1  UNL1        0.0740
     16 C         141.7640  138.7216  160.3647 C.3     1  UNL1        0.0401
     17 C         142.5434  137.2826  156.7492 C.3     1  UNL1        0.0720
     18 C         142.5486  135.8005  156.5177 C.3     1  UNL1        0.0160
     19 C         143.2334  134.7768  157.3740 C.3     1  UNL1        0.0013
     20 C         143.4987  133.3091  157.5328 C.3     1  UNL1        0.0000
     21 C         142.8202  132.5906  156.4044 C.3     1  UNL1        0.0000
     22 C         142.1354  133.6143  155.5481 C.3     1  UNL1        0.0000
     23 C         142.9780  133.4257  156.7748 C.3     1  UNL1        0.0000
     24 C         141.8701  135.0821  155.3893 C.3     1  UNL1        0.0013
     25 C         141.3024  136.3096  154.7406 C.3     1  UNL1        0.0000
     26 C         141.0471  134.9585  154.1414 C.3     1  UNL1        0.0000
     27 C         137.3527  142.2103  163.2379 C.3     1  UNL1        0.1422
     28 C         137.9549  143.5804  163.3401 C.3     1  UNL1        0.1623
     29 O         137.5331  144.6581  162.3859 O.3     1  UNL1       -0.3799
     30 H         136.8698  144.3053  161.7724 H       1  UNL1        0.2105
     31 C         138.9789  143.8726  164.3965 C.3     1  UNL1        0.1683
     32 O         139.0190  145.2226  165.0490 O.3     1  UNL1       -0.3794
     33 H         139.2676  145.8919  164.3923 H       1  UNL1        0.2105
@<TRIPOS>BOND
     1     1     2    2
     2     2     3   ar
     3     3    27    1
     4    27    28    1
     5    28    29    1
     6    28    31    1
     7    31    32    1
     8     3     4   ar
     9     4     5   ar
    10     5     6   ar
    11     6     7   ar
    12     7     8   ar
    13     8     9   ar
    14     9    10   ar
    15    10    11    1
    16    11    12    1
    17    12    13    1
    18    13    14    1
    19    14    17    1
    20    18    17    1
    21    18    19    1
    22    19    20    1
    23    20    21    1
    24    22    21    1
    25    22    23    1
    26    22    24    1
    27    24    25    1
    28    25    26    1
    29    14    15    1
    30    15    16    1
    31    10     2   ar
    32    16    11    1
    33     9     4   ar
    34    24    18    1
    35    23    19    1
    36    26    24    1
    37    29    30    1
    38    32    33    1
@<TRIPOS>MOLECULE
*****
 33 38 0 0 0
SMALL
GASTEIGER

@<TRIPOS>ATOM
      1 O         143.3053  142.8310  160.9519 O.2     1  UNL1       -0.2463
      2 C         142.0640  143.0577  161.7628 C.ar    1  UNL1        0.3316
      3 N         141.8942  142.7477  163.2206 N.ar    1  UNL1       -0.2774
      4 C         140.4997  143.1326  163.6170 C.ar    1  UNL1        0.0798
      5 C         139.7707  143.0550  164.9256 C.ar    1  UNL1        0.0188
      6 C         138.3496  143.5253  165.0215 C.ar    1  UNL1        0.0016
      7 C         137.6575  144.0733  163.8088 C.ar    1  UNL1        0.0016
      8 C         138.3865  144.1510  162.5002 C.ar    1  UNL1        0.0188
      9 C         139.8076  143.6806  162.4043 C.ar    1  UNL1        0.0796
     10 N         140.7744  143.6343  161.2584 N.ar    1  UNL1       -0.2817
     11 C         140.4997  144.0855  159.8544 C.3     1  UNL1        0.0926
     12 C         141.0762  145.3772  159.3554 C.3     1  UNL1        0.0401
     13 C         140.8015  145.8283  157.9514 C.3     1  UNL1        0.0740
     14 N         139.9504  144.9877  157.0465 N.3     1  UNL1       -0.2726
     15 C         139.3740  143.6959  157.5455 C.3     1  UNL1        0.0740
     16 C         139.6486  143.2448  158.9494 C.3     1  UNL1        0.0401
     17 C         139.6758  145.4388  155.6425 C.3     1  UNL1        0.0720
     18 C         139.5528  146.9019  155.3354 C.3     1  UNL1        0.0160
     19 C         138.7948  147.9120  156.1447 C.3     1  UNL1        0.0013
     20 C         138.4160  149.3608  156.2307 C.3     1  UNL1        0.0000
     21 C         139.0295  150.0706  155.0603 C.3     1  UNL1        0.0000
     22 C         139.7875  149.0604  154.2509 C.3     1  UNL1        0.0000
     23 C         138.9398  149.2461  155.4745 C.3     1  UNL1        0.0000
     24 C         140.1663  147.6116  154.1650 C.3     1  UNL1        0.0013
     25 C         140.8249  146.4001  153.5745 C.3     1  UNL1        0.0000
     26 C         140.9699  147.7342  152.9043 C.3     1  UNL1        0.0000
     27 C         142.9360  142.1564  164.1234 C.3     1  UNL1        0.1422
     28 C         144.2880  142.7976  164.2293 C.3     1  UNL1        0.1623
     29 O         144.4158  144.1956  164.7577 O.3     1  UNL1       -0.3799
     30 H         143.5365  144.5377  164.9831 H       1  UNL1        0.2105
     31 C         145.5121  142.0407  163.8067 C.3     1  UNL1        0.1683
     32 O         145.9279  142.0315  162.3655 O.3     1  UNL1       -0.3794
     33 H         145.2593  141.5658  161.8391 H       1  UNL1        0.2105
@<TRIPOS>BOND
     1     1     2    2
     2     2     3   ar
     3     3    27    1
     4    27    28    1
     5    28    29    1
     6    28    31    1
     7    31    32    1
     8     3     4   ar
     9     4     5   ar
    10     5     6   ar
    11     6     7   ar
    12     7     8   ar
    13     8     9   ar
    14     9    10   ar
    15    10    11    1
    16    11    12    1
    17    12    13    1
    18    13    14    1
    19    14    17    1
    20    18    17    1
    21    18    19    1
    22    19    20    1
    23    20    21    1
    24    22    21    1
    25    22    23    1
    26    22    24    1
    27    24    25    1
    28    25    26    1
    29    14    15    1
    30    15    16    1
    31    10     2   ar
    32    16    11    1
    33     9     4   ar
    34    24    18    1
    35    23    19    1
    36    26    24    1
    37    29    30    1
    38    32    33    1
@<TRIPOS>MOLECULE
*****
 33 38 0 0 0
SMALL
GASTEIGER

@<TRIPOS>ATOM
      1 O         137.8536  143.0485  160.7233 O.2     1  UNL1       -0.2463
      2 C         139.3259  142.8142  160.8896 C.ar    1  UNL1        0.3316
      3 N         139.9789  142.0748  162.0196 N.ar    1  UNL1       -0.2774
      4 C         141.4602  142.0817  161.7834 C.ar    1  UNL1        0.0798
      5 C         142.6039  141.5070  162.5654 C.ar    1  UNL1        0.0188
      6 C         144.0101  141.6759  162.0714 C.ar    1  UNL1        0.0016
      7 C         144.2726  142.4196  160.7955 C.ar    1  UNL1        0.0016
      8 C         143.1288  142.9944  160.0135 C.ar    1  UNL1        0.0188
      9 C         141.7227  142.8254  160.5075 C.ar    1  UNL1        0.0796
     10 N         140.4036  143.2781  159.9551 N.ar    1  UNL1       -0.2817
     11 C         140.1983  144.0578  158.6902 C.3     1  UNL1        0.0926
     12 C         140.7906  145.4286  158.5497 C.3     1  UNL1        0.0401
     13 C         140.5853  146.2083  157.2848 C.3     1  UNL1        0.0740
     14 N         139.7877  145.6172  156.1604 N.3     1  UNL1       -0.2726
     15 C         139.1953  144.2463  156.3009 C.3     1  UNL1        0.0740
     16 C         139.4006  143.4666  157.5658 C.3     1  UNL1        0.0401
     17 C         139.5824  146.3969  154.8955 C.3     1  UNL1        0.0720
     18 C         139.3961  147.8842  154.9531 C.3     1  UNL1        0.0160
     19 C         138.6106  148.6350  155.9872 C.3     1  UNL1        0.0013
     20 C         138.1753  150.0023  156.4240 C.3     1  UNL1        0.0000
     21 C         138.7419  150.9999  155.4576 C.3     1  UNL1        0.0000
     22 C         139.5274  150.2491  154.4236 C.3     1  UNL1        0.0000
     23 C         138.6917  150.0966  155.6599 C.3     1  UNL1        0.0000
     24 C         139.9627  148.8817  153.9868 C.3     1  UNL1        0.0013
     25 C         140.6603  147.8785  153.1167 C.3     1  UNL1        0.0000
     26 C         140.7414  149.3401  152.7895 C.3     1  UNL1        0.0000
     27 C         139.2743  141.4398  163.1817 C.3     1  UNL1        0.1422
     28 C         138.0304  140.6328  162.9547 C.3     1  UNL1        0.1623
     29 O         136.6857  141.2948  163.0137 O.3     1  UNL1       -0.3799
     30 H         136.7982  142.2386  163.2069 H       1  UNL1        0.2105
     31 C         138.1313  139.1637  162.6687 C.3     1  UNL1        0.1683
     32 O         138.7274  138.2403  163.6894 O.3     1  UNL1       -0.3794
     33 H         139.6679  138.4484  163.8037 H       1  UNL1        0.2105
@<TRIPOS>BOND
     1     1     2    2
     2     2     3   ar
     3     3    27    1
     4    27    28    1
     5    28    29    1
     6    28    31    1
     7    31    32    1
     8     3     4   ar
     9     4     5   ar
    10     5     6   ar
    11     6     7   ar
    12     7     8   ar
    13     8     9   ar
    14     9    10   ar
    15    10    11    1
    16    11    12    1
    17    12    13    1
    18    13    14    1
    19    14    17    1
    20    18    17    1
    21    18    19    1
    22    19    20    1
    23    20    21    1
    24    22    21    1
    25    22    23    1
    26    22    24    1
    27    24    25    1
    28    25    26    1
    29    14    15    1
    30    15    16    1
    31    10     2   ar
    32    16    11    1
    33     9     4   ar
    34    24    18    1
    35    23    19    1
    36    26    24    1
    37    29    30    1
    38    32    33    1
@<TRIPOS>MOLECULE
*****
 33 38 0 0 0
SMALL
GASTEIGER

@<TRIPOS>ATOM
      1 O         144.3268  139.9201  159.0085 O.2     1  UNL1       -0.2463
      2 C         143.6377  141.2502  158.9314 C.ar    1  UNL1        0.3316
      3 N         143.5758  142.1426  157.7274 N.ar    1  UNL1       -0.2774
      4 C         142.7894  143.3654  158.0967 C.ar    1  UNL1        0.0798
      5 C         142.4047  144.5857  157.3138 C.ar    1  UNL1        0.0188
      6 C         141.5959  145.6692  157.9632 C.ar    1  UNL1        0.0016
      7 C         141.1718  145.5325  159.3955 C.ar    1  UNL1        0.0016
      8 C         141.5565  144.3123  160.1784 C.ar    1  UNL1        0.0188
      9 C         142.3653  143.2288  159.5290 C.ar    1  UNL1        0.0796
     10 N         142.8896  141.9215  160.0449 N.ar    1  UNL1       -0.2817
     11 C         142.6992  141.3805  161.4309 C.3     1  UNL1        0.0926
     12 C         143.0594  142.2207  162.6200 C.3     1  UNL1        0.0401
     13 C         142.8690  141.6797  164.0061 C.3     1  UNL1        0.0740
     14 N         142.3184  140.2983  164.2029 N.3     1  UNL1       -0.2726
     15 C         141.9582  139.4580  163.0138 C.3     1  UNL1        0.0740
     16 C         142.1486  139.9990  161.6277 C.3     1  UNL1        0.0401
     17 C         142.1280  139.7573  165.5890 C.3     1  UNL1        0.0720
     18 C         140.7470  139.4678  166.0979 C.3     1  UNL1        0.0160
     19 C         139.7615  138.5190  165.4826 C.3     1  UNL1        0.0013
     20 C         138.3818  137.9462  165.6174 C.3     1  UNL1        0.0000
     21 C         137.7439  138.5547  166.8310 C.3     1  UNL1        0.0000
     22 C         138.7294  139.5035  167.4463 C.3     1  UNL1        0.0000
     23 C         138.5145  138.5410  166.3160 C.3     1  UNL1        0.0000
     24 C         140.1091  140.0762  167.3115 C.3     1  UNL1        0.0013
     25 C         141.2792  140.9354  167.6896 C.3     1  UNL1        0.0000
     26 C         140.0322  140.9574  168.5229 C.3     1  UNL1        0.0000
     27 C         144.1920  141.8616  156.3890 C.3     1  UNL1        0.1422
     28 C         145.6142  141.3924  156.3017 C.3     1  UNL1        0.1623
     29 O         145.9216  139.9243  156.3141 O.3     1  UNL1       -0.3799
     30 H         145.0950  139.4214  156.3825 H       1  UNL1        0.2105
     31 C         146.7287  142.3913  156.2021 C.3     1  UNL1        0.1683
     32 O         147.1409  143.1781  157.4109 O.3     1  UNL1       -0.3794
     33 H         146.4174  143.7678  157.6749 H       1  UNL1        0.2105
@<TRIPOS>BOND
     1     1     2    2
     2     2     3   ar
     3     3    27    1
     4    27    28    1
     5    28    29    1
     6    28    31    1
     7    31    32    1
     8     3     4   ar
     9     4     5   ar
    10     5     6   ar
    11     6     7   ar
    12     7     8   ar
    13     8     9   ar
    14     9    10   ar
    15    10    11    1
    16    11    12    1
    17    12    13    1
    18    13    14    1
    19    14    17    1
    20    18    17    1
    21    18    19    1
    22    19    20    1
    23    20    21    1
    24    22    21    1
    25    22    23    1
    26    22    24    1
    27    24    25    1
    28    25    26    1
    29    14    15    1
    30    15    16    1
    31    10     2   ar
    32    16    11    1
    33     9     4   ar
    34    24    18    1
    35    23    19    1
    36    26    24    1
    37    29    30    1
    38    32    33    1
@<TRIPOS>MOLECULE
*****
 33 38 0 0 0
SMALL
GASTEIGER

@<TRIPOS>ATOM
      1 O         144.6089  142.7666  159.5755 O.2     1  UNL1       -0.2463
      2 C         144.1478  141.5073  158.9035 C.ar    1  UNL1        0.3316
      3 N         144.2508  141.2010  157.4387 N.ar    1  UNL1       -0.2774
      4 C         143.6694  139.8376  157.2082 C.ar    1  UNL1        0.0798
      5 C         143.5013  139.0152  155.9651 C.ar    1  UNL1        0.0188
      6 C         142.8708  137.6565  156.0443 C.ar    1  UNL1        0.0016
      7 C         142.4085  137.1202  157.3666 C.ar    1  UNL1        0.0016
      8 C         142.5766  137.9425  158.6098 C.ar    1  UNL1        0.0188
      9 C         143.2071  139.3012  158.5305 C.ar    1  UNL1        0.0796
     10 N         143.5028  140.3332  159.5783 N.ar    1  UNL1       -0.2817
     11 C         143.2055  140.2122  161.0435 C.3     1  UNL1        0.0926
     12 C         142.1350  141.0599  161.6642 C.3     1  UNL1        0.0401
     13 C         141.8378  140.9389  163.1295 C.3     1  UNL1        0.0740
     14 N         142.6111  139.9701  163.9741 N.3     1  UNL1       -0.2726
     15 C         143.6817  139.1223  163.3535 C.3     1  UNL1        0.0740
     16 C         143.9789  139.2433  161.8882 C.3     1  UNL1        0.0401
     17 C         142.3139  139.8491  165.4394 C.3     1  UNL1        0.0720
     18 C         140.9272  139.5068  165.8976 C.3     1  UNL1        0.0160
     19 C         139.9781  138.5695  165.2116 C.3     1  UNL1        0.0013
     20 C         138.6082  137.9628  165.2825 C.3     1  UNL1        0.0000
     21 C         137.9271  138.4978  166.5072 C.3     1  UNL1        0.0000
     22 C         138.8762  139.4351  167.1933 C.3     1  UNL1        0.0000
     23 C         138.7105  138.5251  166.0123 C.3     1  UNL1        0.0000
     24 C         140.2462  140.0418  167.1223 C.3     1  UNL1        0.0013
     25 C         141.3875  140.9051  167.5720 C.3     1  UNL1        0.0000
     26 C         140.1199  140.8607  168.3727 C.3     1  UNL1        0.0000
     27 C         144.8330  142.1002  156.3888 C.3     1  UNL1        0.1422
     28 C         146.2562  141.9184  155.9507 C.3     1  UNL1        0.1623
     29 O         146.5709  141.0604  154.7612 O.3     1  UNL1       -0.3799
     30 H         145.7478  140.7014  154.3946 H       1  UNL1        0.2105
     31 C         147.3644  142.5946  156.7020 C.3     1  UNL1        0.1683
     32 O         147.0678  143.3284  157.9762 O.3     1  UNL1       -0.3794
     33 H         146.5092  144.0977  157.7837 H       1  UNL1        0.2105
@<TRIPOS>BOND
     1     1     2    2
     2     2     3   ar
     3     3    27    1
     4    27    28    1
     5    28    29    1
     6    28    31    1
     7    31    32    1
     8     3     4   ar
     9     4     5   ar
    10     5     6   ar
    11     6     7   ar
    12     7     8   ar
    13     8     9   ar
    14     9    10   ar
    15    10    11    1
    16    11    12    1
    17    12    13    1
    18    13    14    1
    19    14    17    1
    20    18    17    1
    21    18    19    1
    22    19    20    1
    23    20    21    1
    24    22    21    1
    25    22    23    1
    26    22    24    1
    27    24    25    1
    28    25    26    1
    29    14    15    1
    30    15    16    1
    31    10     2   ar
    32    16    11    1
    33     9     4   ar
    34    24    18    1
    35    23    19    1
    36    26    24    1
    37    29    30    1
    38    32    33    1
@<TRIPOS>MOLECULE
*****
 33 38 0 0 0
SMALL
GASTEIGER

@<TRIPOS>ATOM
      1 O         141.8453  145.3167  160.6244 O.2     1  UNL1       -0.2463
      2 C         140.9357  144.2163  160.1641 C.ar    1  UNL1        0.3316
      3 N         140.2072  144.1646  158.8540 N.ar    1  UNL1       -0.2774
      4 C         139.4162  142.8908  158.8133 C.ar    1  UNL1        0.0798
      5 C         138.5087  142.3056  157.7722 C.ar    1  UNL1        0.0188
      6 C         137.8409  140.9848  158.0161 C.ar    1  UNL1        0.0016
      7 C         138.0807  140.2492  159.3011 C.ar    1  UNL1        0.0016
      8 C         138.9882  140.8343  160.3423 C.ar    1  UNL1        0.0188
      9 C         139.6560  142.1551  160.0983 C.ar    1  UNL1        0.0796
     10 N         140.5951  142.9744  160.9332 N.ar    1  UNL1       -0.2817
     11 C         141.1041  142.6147  162.2976 C.3     1  UNL1        0.0926
     12 C         141.9647  141.4000  162.4809 C.3     1  UNL1        0.0401
     13 C         142.4737  141.0404  163.8453 C.3     1  UNL1        0.0740
     14 N         142.1221  141.8956  165.0264 N.3     1  UNL1       -0.2726
     15 C         141.2615  143.1104  164.8431 C.3     1  UNL1        0.0740
     16 C         140.7525  143.4700  163.4787 C.3     1  UNL1        0.0401
     17 C         142.6312  141.5359  166.3908 C.3     1  UNL1        0.0720
     18 C         141.6638  141.2296  167.4955 C.3     1  UNL1        0.0160
     19 C         140.3840  140.4593  167.3584 C.3     1  UNL1        0.0013
     20 C         139.1924  139.9425  168.1087 C.3     1  UNL1        0.0000
     21 C         139.3350  140.3526  169.5444 C.3     1  UNL1        0.0000
     22 C         140.6149  141.1229  169.6815 C.3     1  UNL1        0.0000
     23 C         139.7357  140.3934  168.7094 C.3     1  UNL1        0.0000
     24 C         141.8065  141.6397  168.9313 C.3     1  UNL1        0.0013
     25 C         143.1136  142.3555  168.7608 C.3     1  UNL1        0.0000
     26 C         142.4653  142.2895  170.1118 C.3     1  UNL1        0.0000
     27 C         140.2602  145.2043  157.7740 C.3     1  UNL1        0.1422
     28 C         141.5604  145.5114  157.0918 C.3     1  UNL1        0.1623
     29 O         142.5871  146.3602  157.7813 O.3     1  UNL1       -0.3799
     30 H         142.2545  146.6258  158.6530 H       1  UNL1        0.2105
     31 C         141.8339  144.9697  155.7200 C.3     1  UNL1        0.1683
     32 O         143.2291  144.9912  155.1696 O.3     1  UNL1       -0.3794
     33 H         143.5116  145.9102  155.0406 H       1  UNL1        0.2105
@<TRIPOS>BOND
     1     1     2    2
     2     2     3   ar
     3     3    27    1
     4    27    28    1
     5    28    29    1
     6    28    31    1
     7    31    32    1
     8     3     4   ar
     9     4     5   ar
    10     5     6   ar
    11     6     7   ar
    12     7     8   ar
    13     8     9   ar
    14     9    10   ar
    15    10    11    1
    16    11    12    1
    17    12    13    1
    18    13    14    1
    19    14    17    1
    20    18    17    1
    21    18    19    1
    22    19    20    1
    23    20    21    1
    24    22    21    1
    25    22    23    1
    26    22    24    1
    27    24    25    1
    28    25    26    1
    29    14    15    1
    30    15    16    1
    31    10     2   ar
    32    16    11    1
    33     9     4   ar
    34    24    18    1
    35    23    19    1
    36    26    24    1
    37    29    30    1
    38    32    33    1
@<TRIPOS>MOLECULE
*****
 33 38 0 0 0
SMALL
GASTEIGER

@<TRIPOS>ATOM
      1 O         138.3173  142.9245  160.8101 O.2     1  UNL1       -0.2463
      2 C         138.5095  141.7759  161.7555 C.ar    1  UNL1        0.3316
      3 N         138.1246  141.7533  163.2051 N.ar    1  UNL1       -0.2774
      4 C         138.4975  140.4117  163.7629 C.ar    1  UNL1        0.0798
      5 C         138.3562  139.8204  165.1341 C.ar    1  UNL1        0.0188
      6 C         138.8303  138.4224  165.4004 C.ar    1  UNL1        0.0016
      7 C         139.4456  137.6158  164.2955 C.ar    1  UNL1        0.0016
      8 C         139.5868  138.2072  162.9243 C.ar    1  UNL1        0.0188
      9 C         139.1128  139.6051  162.6580 C.ar    1  UNL1        0.0796
     10 N         139.1202  140.4483  161.4174 N.ar    1  UNL1       -0.2817
     11 C         139.6460  140.0360  160.0744 C.3     1  UNL1        0.0926
     12 C         139.1826  138.7540  159.4487 C.3     1  UNL1        0.0401
     13 C         139.7084  138.3418  158.1058 C.3     1  UNL1        0.0740
     14 N         140.6976  139.2117  157.3884 N.3     1  UNL1       -0.2726
     15 C         141.1611  140.4937  158.0140 C.3     1  UNL1        0.0740
     16 C         140.6353  140.9060  159.3570 C.3     1  UNL1        0.0401
     17 C         141.2234  138.7994  156.0454 C.3     1  UNL1        0.0720
     18 C         142.1708  137.6418  155.9339 C.3     1  UNL1        0.0160
     19 C         141.8419  136.2040  156.2069 C.3     1  UNL1        0.0013
     20 C         142.4045  134.8137  156.2302 C.3     1  UNL1        0.0000
     21 C         143.8470  134.8907  155.8262 C.3     1  UNL1        0.0000
     22 C         144.1759  136.3285  155.5531 C.3     1  UNL1        0.0000
     23 C         143.0811  135.3923  155.9716 C.3     1  UNL1        0.0000
     24 C         143.6132  137.7187  155.5299 C.3     1  UNL1        0.0013
     25 C         143.6418  139.2055  155.3327 C.3     1  UNL1        0.0000
     26 C         144.8810  138.3938  155.0974 C.3     1  UNL1        0.0000
     27 C         137.4801  142.8754  163.9638 C.3     1  UNL1        0.1422
     28 C         138.1043  144.2394  163.9598 C.3     1  UNL1        0.1623
     29 O         138.0178  145.1002  162.7344 O.3     1  UNL1       -0.3799
     30 H         137.5292  144.6285  162.0418 H       1  UNL1        0.2105
     31 C         138.8151  144.7425  165.1811 C.3     1  UNL1        0.1683
     32 O         138.0596  145.5087  166.2262 O.3     1  UNL1       -0.3794
     33 H         137.7589  146.3525  165.8542 H       1  UNL1        0.2105
@<TRIPOS>BOND
     1     1     2    2
     2     2     3   ar
     3     3    27    1
     4    27    28    1
     5    28    29    1
     6    28    31    1
     7    31    32    1
     8     3     4   ar
     9     4     5   ar
    10     5     6   ar
    11     6     7   ar
    12     7     8   ar
    13     8     9   ar
    14     9    10   ar
    15    10    11    1
    16    11    12    1
    17    12    13    1
    18    13    14    1
    19    14    17    1
    20    18    17    1
    21    18    19    1
    22    19    20    1
    23    20    21    1
    24    22    21    1
    25    22    23    1
    26    22    24    1
    27    24    25    1
    28    25    26    1
    29    14    15    1
    30    15    16    1
    31    10     2   ar
    32    16    11    1
    33     9     4   ar
    34    24    18    1
    35    23    19    1
    36    26    24    1
    37    29    30    1
    38    32    33    1
@<TRIPOS>MOLECULE
*****
 33 38 0 0 0
SMALL
GASTEIGER

@<TRIPOS>ATOM
      1 O         141.6853  139.4000  158.5829 O.2     1  UNL1       -0.2463
      2 C         142.9043  139.9727  157.9226 C.ar    1  UNL1        0.3316
      3 N         143.5344  139.4787  156.6542 N.ar    1  UNL1       -0.2774
      4 C         144.7268  140.3407  156.3625 C.ar    1  UNL1        0.0798
      5 C         145.7290  140.3233  155.2466 C.ar    1  UNL1        0.0188
      6 C         146.8381  141.3327  155.2189 C.ar    1  UNL1        0.0016
      7 C         146.9450  142.3596  156.3070 C.ar    1  UNL1        0.0016
      8 C         145.9428  142.3770  157.4229 C.ar    1  UNL1        0.0188
      9 C         144.8337  141.3676  157.4506 C.ar    1  UNL1        0.0796
     10 N         143.7073  141.1402  158.4148 N.ar    1  UNL1       -0.2817
     11 C         143.4323  141.9398  159.6537 C.3     1  UNL1        0.0926
     12 C         144.1015  141.5753  160.9457 C.3     1  UNL1        0.0401
     13 C         143.8265  142.3749  162.1846 C.3     1  UNL1        0.0740
     14 N         142.8823  143.5392  162.1316 N.3     1  UNL1       -0.2726
     15 C         142.2130  143.9038  160.8396 C.3     1  UNL1        0.0740
     16 C         142.4880  143.1042  159.6007 C.3     1  UNL1        0.0401
     17 C         142.6073  144.3389  163.3705 C.3     1  UNL1        0.0720
     18 C         141.8513  143.7212  164.5094 C.3     1  UNL1        0.0160
     19 C         142.4009  142.7428  165.5047 C.3     1  UNL1        0.0013
     20 C         142.0615  141.9203  166.7124 C.3     1  UNL1        0.0000
     21 C         140.6234  142.1728  167.0559 C.3     1  UNL1        0.0000
     22 C         140.0739  143.1512  166.0605 C.3     1  UNL1        0.0000
     23 C         141.3023  142.3905  166.4634 C.3     1  UNL1        0.0000
     24 C         140.4132  143.9736  164.8529 C.3     1  UNL1        0.0013
     25 C         140.1530  144.9416  163.7370 C.3     1  UNL1        0.0000
     26 C         139.0545  144.5893  164.6956 C.3     1  UNL1        0.0000
     27 C         143.0560  138.3250  155.8233 C.3     1  UNL1        0.1422
     28 C         143.6358  136.9577  156.0340 C.3     1  UNL1        0.1623
     29 O         144.9277  136.5806  155.3717 O.3     1  UNL1       -0.3799
     30 H         145.2529  137.3292  154.8475 H       1  UNL1        0.2105
     31 C         142.9235  135.9674  156.9070 C.3     1  UNL1        0.1683
     32 O         143.5392  134.6266  157.1769 O.3     1  UNL1       -0.3794
     33 H         143.5789  134.1171  156.3524 H       1  UNL1        0.2105
@<TRIPOS>BOND
     1     1     2    2
     2     2     3   ar
     3     3    27    1
     4    27    28    1
     5    28    29    1
     6    28    31    1
     7    31    32    1
     8     3     4   ar
     9     4     5   ar
    10     5     6   ar
    11     6     7   ar
    12     7     8   ar
    13     8     9   ar
    14     9    10   ar
    15    10    11    1
    16    11    12    1
    17    12    13    1
    18    13    14    1
    19    14    17    1
    20    18    17    1
    21    18    19    1
    22    19    20    1
    23    20    21    1
    24    22    21    1
    25    22    23    1
    26    22    24    1
    27    24    25    1
    28    25    26    1
    29    14    15    1
    30    15    16    1
    31    10     2   ar
    32    16    11    1
    33     9     4   ar
    34    24    18    1
    35    23    19    1
    36    26    24    1
    37    29    30    1
    38    32    33    1
@<TRIPOS>MOLECULE
*****
 33 38 0 0 0
SMALL
GASTEIGER

@<TRIPOS>ATOM
      1 O         139.6516  143.8522  166.4397 O.2     1  UNL1       -0.2463
      2 C         140.5609  142.6643  166.3296 C.ar    1  UNL1        0.3316
      3 N         140.8727  141.6881  167.4250 N.ar    1  UNL1       -0.2774
      4 C         141.8226  140.6645  166.8772 C.ar    1  UNL1        0.0798
      5 C         142.4723  139.4640  167.4989 C.ar    1  UNL1        0.0188
      6 C         143.3975  138.6071  166.6866 C.ar    1  UNL1        0.0016
      7 C         143.6728  138.9507  165.2526 C.ar    1  UNL1        0.0016
      8 C         143.0230  140.1512  164.6310 C.ar    1  UNL1        0.0188
      9 C         142.0979  141.0081  165.4433 C.ar    1  UNL1        0.0796
     10 N         141.3181  142.2440  165.1049 N.ar    1  UNL1       -0.2817
     11 C         141.2990  142.9379  163.7751 C.3     1  UNL1        0.0926
     12 C         140.2829  142.5511  162.7419 C.3     1  UNL1        0.0401
     13 C         140.2638  143.2449  161.4121 C.3     1  UNL1        0.0740
     14 N         141.2608  144.3256  161.1156 N.3     1  UNL1       -0.2726
     15 C         142.2770  144.7125  162.1489 C.3     1  UNL1        0.0740
     16 C         142.2962  144.0186  163.4786 C.3     1  UNL1        0.0401
     17 C         141.2417  145.0195  159.7859 C.3     1  UNL1        0.0720
     18 C         141.9458  144.4083  158.6108 C.3     1  UNL1        0.0160
     19 C         142.9155  143.2650  158.6610 C.3     1  UNL1        0.0013
     20 C         143.7974  142.3843  157.8264 C.3     1  UNL1        0.0000
     21 C         143.6554  142.8092  156.3949 C.3     1  UNL1        0.0000
     22 C         142.6857  143.9526  156.3447 C.3     1  UNL1        0.0000
     23 C         143.3728  142.9833  157.2605 C.3     1  UNL1        0.0000
     24 C         141.8038  144.8333  157.1793 C.3     1  UNL1        0.0013
     25 C         140.8208  145.9360  157.4398 C.3     1  UNL1        0.0000
     26 C         141.2782  145.6543  156.0393 C.3     1  UNL1        0.0000
     27 C         140.3299  141.7283  168.8227 C.3     1  UNL1        0.1422
     28 C         140.8172  142.7691  169.7869 C.3     1  UNL1        0.1623
     29 O         139.8330  143.6292  170.5228 O.3     1  UNL1       -0.3799
     30 H         138.9313  143.3847  170.2618 H       1  UNL1        0.2105
     31 C         142.2887  142.9497  170.0150 C.3     1  UNL1        0.1683
     32 O         142.8050  143.2269  171.3958 O.3     1  UNL1       -0.3794
     33 H         142.4871  144.0942  171.6918 H       1  UNL1        0.2105
@<TRIPOS>BOND
     1     1     2    2
     2     2     3   ar
     3     3    27    1
     4    27    28    1
     5    28    29    1
     6    28    31    1
     7    31    32    1
     8     3     4   ar
     9     4     5   ar
    10     5     6   ar
    11     6     7   ar
    12     7     8   ar
    13     8     9   ar
    14     9    10   ar
    15    10    11    1
    16    11    12    1
    17    12    13    1
    18    13    14    1
    19    14    17    1
    20    18    17    1
    21    18    19    1
    22    19    20    1
    23    20    21    1
    24    22    21    1
    25    22    23    1
    26    22    24    1
    27    24    25    1
    28    25    26    1
    29    14    15    1
    30    15    16    1
    31    10     2   ar
    32    16    11    1
    33     9     4   ar
    34    24    18    1
    35    23    19    1
    36    26    24    1
    37    29    30    1
    38    32    33    1
