@<TRIPOS>MOLECULE
*****
 29 32 0 0 0
SMALL
GASTEIGER

@<TRIPOS>ATOM
      1 C         139.2512  138.5140  163.0951 C.3     1  UNL1        0.0559
      2 C         139.4293  139.5465  164.1685 C.3     1  UNL1        0.2097
      3 N         139.6086  139.2743  165.6327 N.pl3   1  UNL1       -0.2170
      4 C         139.7494  140.5921  166.3353 C.2     1  UNL1        0.3340
      5 N         139.6572  141.6787  165.3054 N.2     1  UNL1       -0.0600
      6 C         139.4593  141.0326  163.9662 C.3     1  UNL1        0.2515
      7 H         139.6300  138.3867  166.0579 H       1  UNL1        0.2923
      8 C         139.2590  140.6816  162.5217 C.ar    1  UNL1        0.0297
      9 C         140.4422  140.5657  161.6070 C.ar    1  UNL1        0.0025
     10 C         140.2419  140.2148  160.1624 C.ar    1  UNL1        0.0295
     11 C         138.8585  139.9798  159.6326 C.ar    1  UNL1        0.1401
     12 F         138.6582  139.6289  158.1880 F       1  UNL1       -0.2042
     13 C         137.6752  140.0957  160.5473 C.ar    1  UNL1        0.0295
     14 C         137.8755  140.4467  161.9918 C.ar    1  UNL1        0.0025
     15 C         139.4475  142.4452  163.4619 C.ar    1  UNL1        0.0488
     16 C         140.7351  143.2010  163.3179 C.ar    1  UNL1        0.0057
     17 C         140.7233  144.6136  162.8136 C.ar    1  UNL1        0.0495
     18 C         139.4238  145.2704  162.4533 C.ar    1  UNL1        0.2223
     19 F         139.4120  146.6831  161.9490 F       1  UNL1       -0.1832
     20 N         138.1362  144.5147  162.5974 N.ar    1  UNL1       -0.2166
     21 C         138.1480  143.1020  163.1017 C.ar    1  UNL1        0.1014
     22 C         139.9477  140.7887  167.8091 C.ar    1  UNL1        0.1633
     23 C         139.0829  140.0504  168.7873 C.ar    1  UNL1        0.0267
     24 C         139.2812  140.2470  170.2610 C.ar    1  UNL1        0.0041
     25 C         140.3443  141.1820  170.7566 C.ar    1  UNL1        0.0297
     26 C         141.2091  141.9204  169.7784 C.ar    1  UNL1        0.1494
     27 N         141.0108  141.7237  168.3047 N.ar    1  UNL1       -0.2276
     28 C         142.2722  142.8554  170.2740 C.1     1  UNL1        0.1198
     29 N         143.3353  143.7904  170.7696 N.1     1  UNL1       -0.1893
@<TRIPOS>BOND
     1     2     1    1
     2     2     3    1
     3     3     4    1
     4     4    22    1
     5    22    23   ar
     6    23    24   ar
     7    24    25   ar
     8    25    26   ar
     9    26    28    1
    10    28    29    3
    11    26    27   ar
    12     4     5    2
    13     5     6    1
    14     6     8    1
    15     8     9   ar
    16     9    10   ar
    17    10    11   ar
    18    11    12    1
    19    11    13   ar
    20    13    14   ar
    21     6    15    1
    22    15    16   ar
    23    16    17   ar
    24    17    18   ar
    25    18    19    1
    26    18    20   ar
    27    20    21   ar
    28     6     2    1
    29    14     8   ar
    30    21    15   ar
    31    27    22   ar
    32     3     7    1
@<TRIPOS>MOLECULE
*****
 29 32 0 0 0
SMALL
GASTEIGER

@<TRIPOS>ATOM
      1 C         140.9384  137.5717  164.7635 C.3     1  UNL1        0.0559
      2 C         140.7778  138.1535  163.3904 C.3     1  UNL1        0.2097
      3 N         141.2736  137.5459  162.1118 N.pl3   1  UNL1       -0.2170
      4 C         140.8954  138.4621  160.9859 C.2     1  UNL1        0.3340
      5 N         140.1657  139.6359  161.5687 N.2     1  UNL1       -0.0600
      6 C         140.0930  139.4453  163.0547 C.3     1  UNL1        0.2515
      7 H         141.7616  136.6951  162.0265 H       1  UNL1        0.2923
      8 C         139.8674  139.5283  164.5353 C.ar    1  UNL1        0.0297
      9 C         138.6024  138.9869  165.1326 C.ar    1  UNL1        0.0025
     10 C         138.3767  139.0699  166.6133 C.ar    1  UNL1        0.0295
     11 C         139.4159  139.6942  167.4965 C.ar    1  UNL1        0.1401
     12 F         139.1902  139.7772  168.9771 F       1  UNL1       -0.2042
     13 C         140.6810  140.2356  166.8992 C.ar    1  UNL1        0.0295
     14 C         140.9066  140.1526  165.4186 C.ar    1  UNL1        0.0025
     15 C         139.3612  140.7543  163.0286 C.ar    1  UNL1        0.0488
     16 C         140.1137  142.0382  163.2165 C.ar    1  UNL1        0.0057
     17 C         139.3818  143.3473  163.1904 C.ar    1  UNL1        0.0495
     18 C         137.8974  143.3725  162.9764 C.ar    1  UNL1        0.2223
     19 F         137.1655  144.6816  162.9503 F       1  UNL1       -0.1832
     20 N         137.1449  142.0887  162.7885 N.ar    1  UNL1       -0.2166
     21 C         137.8767  140.7795  162.8146 C.ar    1  UNL1        0.1014
     22 C         141.1943  138.2428  159.5323 C.ar    1  UNL1        0.1633
     23 C         142.6119  138.2825  159.0439 C.ar    1  UNL1        0.0267
     24 C         142.9108  138.0632  157.5905 C.ar    1  UNL1        0.0041
     25 C         141.7920  137.8043  156.6255 C.ar    1  UNL1        0.0297
     26 C         140.3743  137.7646  157.1139 C.ar    1  UNL1        0.1494
     27 N         140.0755  137.9839  158.5673 N.ar    1  UNL1       -0.2276
     28 C         139.2555  137.5057  156.1489 C.1     1  UNL1        0.1198
     29 N         138.1367  137.2467  155.1839 N.1     1  UNL1       -0.1893
@<TRIPOS>BOND
     1     2     1    1
     2     2     3    1
     3     3     4    1
     4     4    22    1
     5    22    23   ar
     6    23    24   ar
     7    24    25   ar
     8    25    26   ar
     9    26    28    1
    10    28    29    3
    11    26    27   ar
    12     4     5    2
    13     5     6    1
    14     6     8    1
    15     8     9   ar
    16     9    10   ar
    17    10    11   ar
    18    11    12    1
    19    11    13   ar
    20    13    14   ar
    21     6    15    1
    22    15    16   ar
    23    16    17   ar
    24    17    18   ar
    25    18    19    1
    26    18    20   ar
    27    20    21   ar
    28     6     2    1
    29    14     8   ar
    30    21    15   ar
    31    27    22   ar
    32     3     7    1
@<TRIPOS>MOLECULE
*****
 29 32 0 0 0
SMALL
GASTEIGER

@<TRIPOS>ATOM
      1 C         144.3834  139.7584  162.9241 C.3     1  UNL1        0.0559
      2 C         143.5689  140.3456  164.0385 C.3     1  UNL1        0.2097
      3 N         143.4784  139.8151  165.4386 N.pl3   1  UNL1       -0.2170
      4 C         142.5555  140.7081  166.2138 C.2     1  UNL1        0.3340
      5 N         142.0757  141.7904  165.2929 N.2     1  UNL1       -0.0600
      6 C         142.7020  141.5665  163.9484 C.3     1  UNL1        0.2515
      7 H         143.9430  139.0204  165.7875 H       1  UNL1        0.2923
      8 C         143.1675  141.5991  162.5228 C.ar    1  UNL1        0.0297
      9 C         144.3383  142.4531  162.1356 C.ar    1  UNL1        0.0025
     10 C         144.8038  142.4857  160.7099 C.ar    1  UNL1        0.0295
     11 C         144.0985  141.6645  159.6717 C.ar    1  UNL1        0.1401
     12 F         144.5640  141.6971  158.2461 F       1  UNL1       -0.2042
     13 C         142.9276  140.8105  160.0590 C.ar    1  UNL1        0.0295
     14 C         142.4621  140.7778  161.4846 C.ar    1  UNL1        0.0025
     15 C         141.9324  142.7941  163.5603 C.ar    1  UNL1        0.0488
     16 C         142.4569  144.1528  163.9193 C.ar    1  UNL1        0.0057
     17 C         141.6873  145.3804  163.5312 C.ar    1  UNL1        0.0495
     18 C         140.3933  145.2494  162.7841 C.ar    1  UNL1        0.2223
     19 F         139.6237  146.4771  162.3960 F       1  UNL1       -0.1832
     20 N         139.8688  143.8908  162.4251 N.ar    1  UNL1       -0.2166
     21 C         140.6384  142.6630  162.8132 C.ar    1  UNL1        0.1014
     22 C         142.1786  140.5469  167.6568 C.ar    1  UNL1        0.1633
     23 C         142.6609  139.3550  168.4293 C.ar    1  UNL1        0.0267
     24 C         142.2840  139.1939  169.8722 C.ar    1  UNL1        0.0041
     25 C         141.4248  140.2246  170.5425 C.ar    1  UNL1        0.0297
     26 C         140.9425  141.4164  169.7700 C.ar    1  UNL1        0.1494
     27 N         141.3194  141.5776  168.3272 N.ar    1  UNL1       -0.2276
     28 C         140.0833  142.4471  170.4404 C.1     1  UNL1        0.1198
     29 N         139.2240  143.4778  171.1108 N.1     1  UNL1       -0.1893
@<TRIPOS>BOND
     1     2     1    1
     2     2     3    1
     3     3     4    1
     4     4    22    1
     5    22    23   ar
     6    23    24   ar
     7    24    25   ar
     8    25    26   ar
     9    26    28    1
    10    28    29    3
    11    26    27   ar
    12     4     5    2
    13     5     6    1
    14     6     8    1
    15     8     9   ar
    16     9    10   ar
    17    10    11   ar
    18    11    12    1
    19    11    13   ar
    20    13    14   ar
    21     6    15    1
    22    15    16   ar
    23    16    17   ar
    24    17    18   ar
    25    18    19    1
    26    18    20   ar
    27    20    21   ar
    28     6     2    1
    29    14     8   ar
    30    21    15   ar
    31    27    22   ar
    32     3     7    1
@<TRIPOS>MOLECULE
*****
 29 32 0 0 0
SMALL
GASTEIGER

@<TRIPOS>ATOM
      1 C         142.6433  144.8184  162.9684 C.3     1  UNL1        0.0559
      2 C         142.1287  143.6429  163.7452 C.3     1  UNL1        0.2097
      3 N         142.5877  143.2178  165.1085 N.pl3   1  UNL1       -0.2170
      4 C         141.8074  141.9983  165.5009 C.2     1  UNL1        0.3340
      5 N         140.8662  141.6697  164.3802 N.2     1  UNL1       -0.0600
      6 C         141.0647  142.6861  163.2951 C.3     1  UNL1        0.2515
      7 H         143.2796  143.6613  165.6506 H       1  UNL1        0.2923
      8 C         141.0398  143.5399  162.0620 C.ar    1  UNL1        0.0297
      9 C         141.8954  143.1804  160.8835 C.ar    1  UNL1        0.0025
     10 C         141.8705  144.0342  159.6504 C.ar    1  UNL1        0.0295
     11 C         140.9900  145.2473  159.5958 C.ar    1  UNL1        0.1401
     12 F         140.9651  146.1010  158.3627 F       1  UNL1       -0.2042
     13 C         140.1344  145.6068  160.7743 C.ar    1  UNL1        0.0295
     14 C         140.1593  144.7530  162.0074 C.ar    1  UNL1        0.0025
     15 C         139.9956  141.9079  162.5871 C.ar    1  UNL1        0.0488
     16 C         140.3692  140.7659  161.6892 C.ar    1  UNL1        0.0057
     17 C         139.3001  139.9876  160.9812 C.ar    1  UNL1        0.0495
     18 C         137.8573  140.3513  161.1713 C.ar    1  UNL1        0.2223
     19 F         136.7881  139.5730  160.4632 F       1  UNL1       -0.1832
     20 N         137.4837  141.4932  162.0691 N.ar    1  UNL1       -0.2166
     21 C         138.5528  142.2716  162.7771 C.ar    1  UNL1        0.1014
     22 C         141.9443  141.2404  166.7882 C.ar    1  UNL1        0.1633
     23 C         142.6233  139.9030  166.8025 C.ar    1  UNL1        0.0267
     24 C         142.7602  139.1452  168.0897 C.ar    1  UNL1        0.0041
     25 C         142.2182  139.7248  169.3626 C.ar    1  UNL1        0.0297
     26 C         141.5392  141.0622  169.3483 C.ar    1  UNL1        0.1494
     27 N         141.4023  141.8200  168.0611 N.ar    1  UNL1       -0.2276
     28 C         140.9972  141.6419  170.6212 C.1     1  UNL1        0.1198
     29 N         140.4551  142.2215  171.8940 N.1     1  UNL1       -0.1893
@<TRIPOS>BOND
     1     2     1    1
     2     2     3    1
     3     3     4    1
     4     4    22    1
     5    22    23   ar
     6    23    24   ar
     7    24    25   ar
     8    25    26   ar
     9    26    28    1
    10    28    29    3
    11    26    27   ar
    12     4     5    2
    13     5     6    1
    14     6     8    1
    15     8     9   ar
    16     9    10   ar
    17    10    11   ar
    18    11    12    1
    19    11    13   ar
    20    13    14   ar
    21     6    15    1
    22    15    16   ar
    23    16    17   ar
    24    17    18   ar
    25    18    19    1
    26    18    20   ar
    27    20    21   ar
    28     6     2    1
    29    14     8   ar
    30    21    15   ar
    31    27    22   ar
    32     3     7    1
@<TRIPOS>MOLECULE
*****
 29 32 0 0 0
SMALL
GASTEIGER

@<TRIPOS>ATOM
      1 C         141.6754  145.2870  163.5521 C.3     1  UNL1        0.0559
      2 C         141.3451  144.7720  162.1826 C.3     1  UNL1        0.2097
      3 N         141.7607  145.3943  160.8826 N.pl3   1  UNL1       -0.2170
      4 C         141.2137  144.5511  159.7692 C.2     1  UNL1        0.3340
      5 N         140.4599  143.4076  160.3810 N.2     1  UNL1       -0.0600
      6 C         140.5411  143.5441  161.8726 C.3     1  UNL1        0.2515
      7 H         142.2983  146.2125  160.7785 H       1  UNL1        0.2923
      8 C         140.4503  143.4185  163.3645 C.ar    1  UNL1        0.0297
      9 C         139.3315  144.0874  164.1067 C.ar    1  UNL1        0.0025
     10 C         139.2406  143.9618  165.5988 C.ar    1  UNL1        0.0295
     11 C         140.2685  143.1672  166.3484 C.ar    1  UNL1        0.1401
     12 F         140.1776  143.0416  167.8404 F       1  UNL1       -0.2042
     13 C         141.3873  142.4982  165.6062 C.ar    1  UNL1        0.0295
     14 C         141.4782  142.6239  164.1142 C.ar    1  UNL1        0.0025
     15 C         139.7181  142.2900  161.8745 C.ar    1  UNL1        0.0488
     16 C         140.3926  140.9503  161.8924 C.ar    1  UNL1        0.0057
     17 C         139.5697  139.6963  161.8943 C.ar    1  UNL1        0.0495
     18 C         138.0722  139.7819  161.8782 C.ar    1  UNL1        0.2223
     19 F         137.2493  138.5277  161.8801 F       1  UNL1       -0.1832
     20 N         137.3977  141.1215  161.8603 N.ar    1  UNL1       -0.2166
     21 C         138.2207  142.3756  161.8584 C.ar    1  UNL1        0.1014
     22 C         141.3896  144.8065  158.3015 C.ar    1  UNL1        0.1633
     23 C         142.3814  144.0028  157.5140 C.ar    1  UNL1        0.0267
     24 C         142.5572  144.2583  156.0464 C.ar    1  UNL1        0.0041
     25 C         141.7412  145.3175  155.3664 C.ar    1  UNL1        0.0297
     26 C         140.7494  146.1212  156.1540 C.ar    1  UNL1        0.1494
     27 N         140.5736  145.8657  157.6216 N.ar    1  UNL1       -0.2276
     28 C         139.9335  147.1803  155.4741 C.1     1  UNL1        0.1198
     29 N         139.1175  148.2395  154.7941 N.1     1  UNL1       -0.1893
@<TRIPOS>BOND
     1     2     1    1
     2     2     3    1
     3     3     4    1
     4     4    22    1
     5    22    23   ar
     6    23    24   ar
     7    24    25   ar
     8    25    26   ar
     9    26    28    1
    10    28    29    3
    11    26    27   ar
    12     4     5    2
    13     5     6    1
    14     6     8    1
    15     8     9   ar
    16     9    10   ar
    17    10    11   ar
    18    11    12    1
    19    11    13   ar
    20    13    14   ar
    21     6    15    1
    22    15    16   ar
    23    16    17   ar
    24    17    18   ar
    25    18    19    1
    26    18    20   ar
    27    20    21   ar
    28     6     2    1
    29    14     8   ar
    30    21    15   ar
    31    27    22   ar
    32     3     7    1
@<TRIPOS>MOLECULE
*****
 29 32 0 0 0
SMALL
GASTEIGER

@<TRIPOS>ATOM
      1 C         142.4743  139.5431  167.7796 C.3     1  UNL1        0.0559
      2 C         142.1170  139.6904  166.3303 C.3     1  UNL1        0.2097
      3 N         142.6906  138.8948  165.1955 N.pl3   1  UNL1       -0.2170
      4 C         142.0515  139.3720  163.9251 C.2     1  UNL1        0.3340
      5 N         141.0828  140.4625  164.2748 N.2     1  UNL1       -0.0600
      6 C         141.1232  140.6594  165.7612 C.3     1  UNL1        0.2515
      7 H         143.3678  138.1842  165.2711 H       1  UNL1        0.2923
      8 C         140.9483  141.0770  167.1913 C.ar    1  UNL1        0.0297
      9 C         141.8785  142.0859  167.7970 C.ar    1  UNL1        0.0025
     10 C         141.7036  142.5036  169.2271 C.ar    1  UNL1        0.0295
     11 C         140.5987  141.9124  170.0513 C.ar    1  UNL1        0.1401
     12 F         140.4238  142.3300  171.4813 F       1  UNL1       -0.2042
     13 C         139.6684  140.9034  169.4455 C.ar    1  UNL1        0.0295
     14 C         139.8433  140.4857  168.0155 C.ar    1  UNL1        0.0025
     15 C         140.0930  141.7156  165.4912 C.ar    1  UNL1        0.0488
     16 C         140.4075  143.1569  165.7627 C.ar    1  UNL1        0.0057
     17 C         139.3772  144.2131  165.4927 C.ar    1  UNL1        0.0495
     18 C         138.0324  143.8280  164.9512 C.ar    1  UNL1        0.2223
     19 F         137.0021  144.8843  164.6811 F       1  UNL1       -0.1832
     20 N         137.7179  142.3868  164.6797 N.ar    1  UNL1       -0.2166
     21 C         138.7482  141.3305  164.9497 C.ar    1  UNL1        0.1014
     22 C         142.3318  138.8501  162.5470 C.ar    1  UNL1        0.1633
     23 C         143.6691  138.2490  162.2303 C.ar    1  UNL1        0.0267
     24 C         143.9494  137.7272  160.8522 C.ar    1  UNL1        0.0041
     25 C         142.8924  137.8065  159.7908 C.ar    1  UNL1        0.0297
     26 C         141.5552  138.4077  160.1075 C.ar    1  UNL1        0.1494
     27 N         141.2749  138.9295  161.4856 N.ar    1  UNL1       -0.2276
     28 C         140.4982  138.4870  159.0461 C.1     1  UNL1        0.1198
     29 N         139.4412  138.5664  157.9847 N.1     1  UNL1       -0.1893
@<TRIPOS>BOND
     1     2     1    1
     2     2     3    1
     3     3     4    1
     4     4    22    1
     5    22    23   ar
     6    23    24   ar
     7    24    25   ar
     8    25    26   ar
     9    26    28    1
    10    28    29    3
    11    26    27   ar
    12     4     5    2
    13     5     6    1
    14     6     8    1
    15     8     9   ar
    16     9    10   ar
    17    10    11   ar
    18    11    12    1
    19    11    13   ar
    20    13    14   ar
    21     6    15    1
    22    15    16   ar
    23    16    17   ar
    24    17    18   ar
    25    18    19    1
    26    18    20   ar
    27    20    21   ar
    28     6     2    1
    29    14     8   ar
    30    21    15   ar
    31    27    22   ar
    32     3     7    1
@<TRIPOS>MOLECULE
*****
 29 32 0 0 0
SMALL
GASTEIGER

@<TRIPOS>ATOM
      1 C         141.4078  137.7069  163.1381 C.3     1  UNL1        0.0559
      2 C         141.1739  138.7000  164.2377 C.3     1  UNL1        0.2097
      3 N         141.6263  138.5623  165.6611 N.pl3   1  UNL1       -0.2170
      4 C         141.1785  139.7824  166.4100 C.2     1  UNL1        0.3340
      5 N         140.4492  140.6742  165.4494 N.2     1  UNL1       -0.0600
      6 C         140.4464  140.0053  164.1068 C.3     1  UNL1        0.2515
      7 H         142.1290  137.8042  166.0378 H       1  UNL1        0.2923
      8 C         140.2844  139.5912  162.6742 C.ar    1  UNL1        0.0297
      9 C         139.1224  138.7339  162.2682 C.ar    1  UNL1        0.0025
     10 C         138.9603  138.3196  160.8356 C.ar    1  UNL1        0.0295
     11 C         139.9602  138.7627  159.8092 C.ar    1  UNL1        0.1401
     12 F         139.7982  138.3485  158.3766 F       1  UNL1       -0.2042
     13 C         141.1223  139.6201  160.2152 C.ar    1  UNL1        0.0295
     14 C         141.2843  140.0343  161.6477 C.ar    1  UNL1        0.0025
     15 C         139.6850  141.2240  163.6764 C.ar    1  UNL1        0.0488
     16 C         138.1858  141.1967  163.6372 C.ar    1  UNL1        0.0057
     17 C         137.4244  142.4153  163.2068 C.ar    1  UNL1        0.0495
     18 C         138.1623  143.6613  162.8156 C.ar    1  UNL1        0.2223
     19 F         137.4009  144.8799  162.3852 F       1  UNL1       -0.1832
     20 N         139.6615  143.6886  162.8548 N.ar    1  UNL1       -0.2166
     21 C         140.4229  142.4699  163.2852 C.ar    1  UNL1        0.1014
     22 C         141.4179  140.0617  167.8643 C.ar    1  UNL1        0.1633
     23 C         142.4835  139.3111  168.6066 C.ar    1  UNL1        0.0267
     24 C         142.7229  139.5904  170.0607 C.ar    1  UNL1        0.0041
     25 C         141.8966  140.6202  170.7726 C.ar    1  UNL1        0.0297
     26 C         140.8310  141.3707  170.0303 C.ar    1  UNL1        0.1494
     27 N         140.5916  141.0915  168.5761 N.ar    1  UNL1       -0.2276
     28 C         140.0047  142.4005  170.7422 C.1     1  UNL1        0.1198
     29 N         139.1784  143.4303  171.4541 N.1     1  UNL1       -0.1893
@<TRIPOS>BOND
     1     2     1    1
     2     2     3    1
     3     3     4    1
     4     4    22    1
     5    22    23   ar
     6    23    24   ar
     7    24    25   ar
     8    25    26   ar
     9    26    28    1
    10    28    29    3
    11    26    27   ar
    12     4     5    2
    13     5     6    1
    14     6     8    1
    15     8     9   ar
    16     9    10   ar
    17    10    11   ar
    18    11    12    1
    19    11    13   ar
    20    13    14   ar
    21     6    15    1
    22    15    16   ar
    23    16    17   ar
    24    17    18   ar
    25    18    19    1
    26    18    20   ar
    27    20    21   ar
    28     6     2    1
    29    14     8   ar
    30    21    15   ar
    31    27    22   ar
    32     3     7    1
@<TRIPOS>MOLECULE
*****
 29 32 0 0 0
SMALL
GASTEIGER

@<TRIPOS>ATOM
      1 C         141.5324  137.5029  164.6968 C.3     1  UNL1        0.0559
      2 C         141.9941  138.2685  163.4923 C.3     1  UNL1        0.2097
      3 N         142.0613  137.7459  162.0879 N.pl3   1  UNL1       -0.2170
      4 C         142.5784  138.8454  161.2084 C.2     1  UNL1        0.3340
      5 N         142.8308  140.0476  162.0692 N.2     1  UNL1       -0.0600
      6 C         142.4697  139.6911  163.4807 C.3     1  UNL1        0.2515
      7 H         141.8101  136.8402  161.7949 H       1  UNL1        0.2923
      8 C         142.1960  139.6292  164.9543 C.ar    1  UNL1        0.0297
      9 C         140.8685  140.0772  165.4900 C.ar    1  UNL1        0.0025
     10 C         140.5948  140.0153  166.9636 C.ar    1  UNL1        0.0295
     11 C         141.6486  139.5054  167.9013 C.ar    1  UNL1        0.1401
     12 F         141.3749  139.4435  169.3748 F       1  UNL1       -0.2042
     13 C         142.9762  139.0573  167.3656 C.ar    1  UNL1        0.0295
     14 C         143.2499  139.1192  165.8921 C.ar    1  UNL1        0.0025
     15 C         142.8880  141.1007  163.7773 C.ar    1  UNL1        0.0488
     16 C         144.2734  141.3821  164.2788 C.ar    1  UNL1        0.0057
     17 C         144.6918  142.7917  164.5753 C.ar    1  UNL1        0.0495
     18 C         143.7248  143.9199  164.3703 C.ar    1  UNL1        0.2223
     19 F         144.1432  145.3296  164.6668 F       1  UNL1       -0.1832
     20 N         142.3395  143.6385  163.8688 N.ar    1  UNL1       -0.2166
     21 C         141.9210  142.2289  163.5723 C.ar    1  UNL1        0.1014
     22 C         142.8036  138.7581  159.7279 C.ar    1  UNL1        0.1633
     23 C         143.2806  139.9612  158.9696 C.ar    1  UNL1        0.0267
     24 C         143.5057  139.8738  157.4892 C.ar    1  UNL1        0.0041
     25 C         143.2539  138.5834  156.7671 C.ar    1  UNL1        0.0297
     26 C         142.7769  137.3803  157.5254 C.ar    1  UNL1        0.1494
     27 N         142.5517  137.4677  159.0058 N.ar    1  UNL1       -0.2276
     28 C         142.5250  136.0899  156.8034 C.1     1  UNL1        0.1198
     29 N         142.2732  134.7995  156.0813 N.1     1  UNL1       -0.1893
@<TRIPOS>BOND
     1     2     1    1
     2     2     3    1
     3     3     4    1
     4     4    22    1
     5    22    23   ar
     6    23    24   ar
     7    24    25   ar
     8    25    26   ar
     9    26    28    1
    10    28    29    3
    11    26    27   ar
    12     4     5    2
    13     5     6    1
    14     6     8    1
    15     8     9   ar
    16     9    10   ar
    17    10    11   ar
    18    11    12    1
    19    11    13   ar
    20    13    14   ar
    21     6    15    1
    22    15    16   ar
    23    16    17   ar
    24    17    18   ar
    25    18    19    1
    26    18    20   ar
    27    20    21   ar
    28     6     2    1
    29    14     8   ar
    30    21    15   ar
    31    27    22   ar
    32     3     7    1
@<TRIPOS>MOLECULE
*****
 29 32 0 0 0
SMALL
GASTEIGER

@<TRIPOS>ATOM
      1 C         144.6346  141.4784  162.9753 C.3     1  UNL1        0.0559
      2 C         143.5650  141.2503  164.0018 C.3     1  UNL1        0.2097
      3 N         143.6258  141.6581  165.4441 N.pl3   1  UNL1       -0.2170
      4 C         142.3451  141.2342  166.1000 C.2     1  UNL1        0.3340
      5 N         141.4928  140.5645  165.0632 N.2     1  UNL1       -0.0600
      6 C         142.2467  140.5744  163.7664 C.3     1  UNL1        0.2515
      7 H         144.3747  142.1224  165.8831 H       1  UNL1        0.2923
      8 C         142.7469  140.4371  162.3590 C.ar    1  UNL1        0.0297
      9 C         143.5949  139.2606  161.9759 C.ar    1  UNL1        0.0025
     10 C         144.0951  139.1232  160.5684 C.ar    1  UNL1        0.0295
     11 C         143.7474  140.1623  159.5441 C.ar    1  UNL1        0.1401
     12 F         144.2476  140.0250  158.1367 F       1  UNL1       -0.2042
     13 C         142.8993  141.3389  159.9272 C.ar    1  UNL1        0.0295
     14 C         142.3991  141.4762  161.3347 C.ar    1  UNL1        0.0025
     15 C         141.0330  139.8698  163.2368 C.ar    1  UNL1        0.0488
     16 C         141.0042  138.3715  163.1719 C.ar    1  UNL1        0.0057
     17 C         139.7906  137.6669  162.6423 C.ar    1  UNL1        0.0495
     18 C         138.6057  138.4606  162.1774 C.ar    1  UNL1        0.2223
     19 F         137.3920  137.7559  161.6478 F       1  UNL1       -0.1832
     20 N         138.6345  139.9589  162.2423 N.ar    1  UNL1       -0.2166
     21 C         139.8482  140.6636  162.7720 C.ar    1  UNL1        0.1014
     22 C         141.9807  141.4433  167.5400 C.ar    1  UNL1        0.1633
     23 C         142.8746  142.2556  168.4295 C.ar    1  UNL1        0.0267
     24 C         142.5102  142.4647  169.8694 C.ar    1  UNL1        0.0041
     25 C         141.2519  141.8616  170.4199 C.ar    1  UNL1        0.0297
     26 C         140.3581  141.0493  169.5304 C.ar    1  UNL1        0.1494
     27 N         140.7225  140.8402  168.0905 N.ar    1  UNL1       -0.2276
     28 C         139.0998  140.4461  170.0809 C.1     1  UNL1        0.1198
     29 N         137.8416  139.8430  170.6314 N.1     1  UNL1       -0.1893
@<TRIPOS>BOND
     1     2     1    1
     2     2     3    1
     3     3     4    1
     4     4    22    1
     5    22    23   ar
     6    23    24   ar
     7    24    25   ar
     8    25    26   ar
     9    26    28    1
    10    28    29    3
    11    26    27   ar
    12     4     5    2
    13     5     6    1
    14     6     8    1
    15     8     9   ar
    16     9    10   ar
    17    10    11   ar
    18    11    12    1
    19    11    13   ar
    20    13    14   ar
    21     6    15    1
    22    15    16   ar
    23    16    17   ar
    24    17    18   ar
    25    18    19    1
    26    18    20   ar
    27    20    21   ar
    28     6     2    1
    29    14     8   ar
    30    21    15   ar
    31    27    22   ar
    32     3     7    1
