@<TRIPOS>MOLECULE
*****
 35 39 0 0 0
SMALL
GASTEIGER

@<TRIPOS>ATOM
      1 N         142.3330  143.0894  160.5797 N.3     1  UNL1       -0.2712
      2 C         143.1260  141.9760  159.9621 C.3     1  UNL1        0.0738
      3 C         143.4662  140.9939  161.0437 C.3     1  UNL1        0.0372
      4 C         144.1665  139.6988  161.3305 C.3     1  UNL1        0.0245
      5 C         144.0167  139.4048  162.7938 C.3     1  UNL1        0.0909
      6 N         143.2236  140.5183  163.4114 N.pl3   1  UNL1       -0.3077
      7 C         142.8834  141.5004  162.3298 C.3     1  UNL1        0.0901
      8 C         142.1831  142.7955  162.0430 C.3     1  UNL1        0.0921
      9 C         142.8385  140.6301  164.8568 C.ar    1  UNL1        0.0480
     10 C         143.3123  141.7972  165.6711 C.ar    1  UNL1        0.0176
     11 C         142.9272  141.9089  167.1165 C.ar    1  UNL1        0.0385
     12 C         142.0682  140.8536  167.7475 C.ar    1  UNL1        0.1469
     13 C         141.5943  139.6863  166.9332 C.ar    1  UNL1        0.0385
     14 C         141.9794  139.5746  165.4878 C.ar    1  UNL1        0.0176
     15 O         141.6830  140.9653  169.1929 O.3     1  UNL1       -0.4045
     16 C         140.2353  140.9661  169.5854 C.3     1  UNL1        0.5753
     17 F         138.7875  140.9668  169.9780 F       1  UNL1       -0.1328
     18 F         140.0537  142.2944  168.9128 F       1  UNL1       -0.1328
     19 F         140.4170  139.6376  170.2581 F       1  UNL1       -0.1328
     20 C         141.7859  144.2866  159.8604 C.3     1  UNL1        0.0731
     21 C         140.4414  144.8366  160.2343 C.3     1  UNL1        0.0294
     22 C         140.2542  145.5290  161.5518 C.3     1  UNL1        0.0666
     23 S         139.1104  145.1471  162.4439 S.3     1  UNL1       -0.0756
     24 C         139.8903  142.9691  164.7455 C.3     1  UNL1        0.1340
     25 N         139.0064  142.7203  163.5595 N.ar    1  UNL1       -0.2872
     26 C         138.6479  143.7214  162.5015 C.ar    1  UNL1        0.1933
     27 N         137.7457  143.0465  161.5113 N.ar    1  UNL1       -0.1221
     28 N         137.5466  141.6282  161.9572 N.ar    1  UNL1       -0.1266
     29 C         138.3257  141.4265  163.2231 C.ar    1  UNL1        0.1862
     30 C         138.4094  140.1546  164.0137 C.ar    1  UNL1        0.1362
     31 C         138.8857  138.8931  163.3567 C.ar    1  UNL1        0.1211
     32 N         138.9695  137.6211  164.1473 N.ar    1  UNL1       -0.2390
     33 C         138.5768  137.6107  165.5950 C.ar    1  UNL1        0.1195
     34 C         138.1005  138.8722  166.2521 C.ar    1  UNL1        0.1196
     35 N         138.0168  140.1442  165.4613 N.ar    1  UNL1       -0.2375
@<TRIPOS>BOND
     1    24    25    1
     2    25    26   ar
     3    26    23    1
     4    23    22    1
     5    22    21    1
     6    21    20    1
     7    20     1    1
     8     1     2    1
     9     2     3    1
    10     3     4    1
    11     4     5    1
    12     5     6    1
    13     6     9    1
    14     9    10   ar
    15    10    11   ar
    16    11    12   ar
    17    12    15    1
    18    15    16    1
    19    16    17    1
    20    16    18    1
    21    16    19    1
    22    12    13   ar
    23    13    14   ar
    24     6     7    1
    25     7     8    1
    26    26    27   ar
    27    27    28   ar
    28    28    29   ar
    29    29    30    1
    30    30    31   ar
    31    31    32   ar
    32    32    33   ar
    33    33    34   ar
    34    34    35   ar
    35    29    25   ar
    36    35    30   ar
    37     8     1    1
    38     7     3    1
    39    14     9   ar
@<TRIPOS>MOLECULE
*****
 35 39 0 0 0
SMALL
GASTEIGER

@<TRIPOS>ATOM
      1 N         142.5724  138.3889  162.3013 N.3     1  UNL1       -0.2712
      2 C         141.3007  137.6889  161.9234 C.3     1  UNL1        0.0738
      3 C         140.3098  137.8987  163.0298 C.3     1  UNL1        0.0372
      4 C         138.9114  137.5957  163.4800 C.3     1  UNL1        0.0245
      5 C         138.7063  138.2382  164.8199 C.3     1  UNL1        0.0909
      6 N         139.9781  138.9383  165.1977 N.pl3   1  UNL1       -0.3077
      7 C         140.9690  138.7284  164.0914 C.3     1  UNL1        0.0901
      8 C         142.3674  139.0314  163.6411 C.3     1  UNL1        0.0921
      9 C         140.2169  139.7122  166.4603 C.ar    1  UNL1        0.0480
     10 C         139.2595  139.5885  167.6083 C.ar    1  UNL1        0.0176
     11 C         139.4983  140.3624  168.8708 C.ar    1  UNL1        0.0385
     12 C         140.6945  141.2602  168.9853 C.ar    1  UNL1        0.1469
     13 C         141.6520  141.3840  167.8372 C.ar    1  UNL1        0.0385
     14 C         141.4132  140.6100  166.5747 C.ar    1  UNL1        0.0176
     15 O         140.9333  142.0341  170.2478 O.3     1  UNL1       -0.4045
     16 C         140.6451  143.5055  170.2914 C.3     1  UNL1        0.5753
     17 F         140.3568  144.9770  170.3350 F       1  UNL1       -0.1328
     18 F         142.0853  143.7965  169.9897 F       1  UNL1       -0.1328
     19 F         139.2048  143.2144  170.5931 F       1  UNL1       -0.1328
     20 C         143.8285  138.4379  161.4830 C.3     1  UNL1        0.0731
     21 C         144.2098  139.7008  160.7691 C.3     1  UNL1        0.0294
     22 C         143.7641  139.9269  159.3548 C.3     1  UNL1        0.0666
     23 S         143.1693  141.2453  158.9575 S.3     1  UNL1       -0.0756
     24 C         140.4756  141.0952  160.7935 C.3     1  UNL1        0.1340
     25 N         141.5261  142.1642  160.8550 N.ar    1  UNL1       -0.2872
     26 C         142.7642  142.2332  160.0111 C.ar    1  UNL1        0.1933
     27 N         143.5262  143.4635  160.4057 N.ar    1  UNL1       -0.1221
     28 N         142.7590  144.1549  161.4935 N.ar    1  UNL1       -0.1266
     29 C         141.5228  143.3519  161.7713 C.ar    1  UNL1        0.1862
     30 C         140.4685  143.6792  162.7868 C.ar    1  UNL1        0.1362
     31 C         139.1499  144.2412  162.3446 C.ar    1  UNL1        0.1211
     32 N         138.0956  144.5684  163.3602 N.ar    1  UNL1       -0.2390
     33 C         138.3600  144.3336  164.8180 C.ar    1  UNL1        0.1195
     34 C         139.6786  143.7716  165.2602 C.ar    1  UNL1        0.1196
     35 N         140.7328  143.4444  164.2445 N.ar    1  UNL1       -0.2375
@<TRIPOS>BOND
     1    24    25    1
     2    25    26   ar
     3    26    23    1
     4    23    22    1
     5    22    21    1
     6    21    20    1
     7    20     1    1
     8     1     2    1
     9     2     3    1
    10     3     4    1
    11     4     5    1
    12     5     6    1
    13     6     9    1
    14     9    10   ar
    15    10    11   ar
    16    11    12   ar
    17    12    15    1
    18    15    16    1
    19    16    17    1
    20    16    18    1
    21    16    19    1
    22    12    13   ar
    23    13    14   ar
    24     6     7    1
    25     7     8    1
    26    26    27   ar
    27    27    28   ar
    28    28    29   ar
    29    29    30    1
    30    30    31   ar
    31    31    32   ar
    32    32    33   ar
    33    33    34   ar
    34    34    35   ar
    35    29    25   ar
    36    35    30   ar
    37     8     1    1
    38     7     3    1
    39    14     9   ar
@<TRIPOS>MOLECULE
*****
 35 39 0 0 0
SMALL
GASTEIGER

@<TRIPOS>ATOM
      1 N         142.1571  143.7032  161.4211 N.3     1  UNL1       -0.2712
      2 C         143.0454  142.7823  160.6383 C.3     1  UNL1        0.0738
      3 C         143.5832  141.7458  161.5798 C.3     1  UNL1        0.0372
      4 C         144.4646  140.5361  161.6779 C.3     1  UNL1        0.0245
      5 C         144.4535  140.0687  163.1033 C.3     1  UNL1        0.0909
      6 N         143.5651  140.9897  163.8861 N.pl3   1  UNL1       -0.3077
      7 C         143.0273  142.0262  162.9445 C.3     1  UNL1        0.0901
      8 C         142.1459  143.2359  162.8464 C.3     1  UNL1        0.0921
      9 C         143.2670  140.8914  165.3529 C.ar    1  UNL1        0.0480
     10 C         143.0475  139.5491  165.9853 C.ar    1  UNL1        0.0176
     11 C         142.7494  139.4508  167.4521 C.ar    1  UNL1        0.0385
     12 C         142.6706  140.6948  168.2864 C.ar    1  UNL1        0.1469
     13 C         142.8901  142.0372  167.6540 C.ar    1  UNL1        0.0385
     14 C         143.1882  142.1355  166.1872 C.ar    1  UNL1        0.0176
     15 O         142.3725  140.5966  169.7532 O.3     1  UNL1       -0.4045
     16 C         141.0025  140.1967  170.2149 C.3     1  UNL1        0.5753
     17 F         139.6325  139.7968  170.6767 F       1  UNL1       -0.1328
     18 F         140.5221  141.6023  170.0067 F       1  UNL1       -0.1328
     19 F         141.4830  138.7910  170.4231 F       1  UNL1       -0.1328
     20 C         141.4109  144.8841  160.8746 C.3     1  UNL1        0.0731
     21 C         140.0148  144.7134  160.3534 C.3     1  UNL1        0.0294
     22 C         139.7440  143.7506  159.2354 C.3     1  UNL1        0.0666
     23 S         138.9526  142.5032  159.4952 S.3     1  UNL1       -0.0756
     24 C         137.8061  142.5640  162.5499 C.3     1  UNL1        0.1340
     25 N         138.8266  141.6063  162.0101 N.ar    1  UNL1       -0.2872
     26 C         139.3536  141.5784  160.6060 C.ar    1  UNL1        0.1933
     27 N         140.3520  140.4632  160.5077 N.ar    1  UNL1       -0.1221
     28 N         140.4421  139.8020  161.8510 N.ar    1  UNL1       -0.1266
     29 C         139.4994  140.5084  162.7796 C.ar    1  UNL1        0.1862
     30 C         139.2697  140.1754  164.2241 C.ar    1  UNL1        0.1362
     31 C         139.7119  141.1300  165.2933 C.ar    1  UNL1        0.1211
     32 N         139.4822  140.7970  166.7377 N.ar    1  UNL1       -0.2390
     33 C         138.8103  139.5093  167.1129 C.ar    1  UNL1        0.1195
     34 C         138.3681  138.5548  166.0436 C.ar    1  UNL1        0.1196
     35 N         138.5978  138.8878  164.5992 N.ar    1  UNL1       -0.2375
@<TRIPOS>BOND
     1    24    25    1
     2    25    26   ar
     3    26    23    1
     4    23    22    1
     5    22    21    1
     6    21    20    1
     7    20     1    1
     8     1     2    1
     9     2     3    1
    10     3     4    1
    11     4     5    1
    12     5     6    1
    13     6     9    1
    14     9    10   ar
    15    10    11   ar
    16    11    12   ar
    17    12    15    1
    18    15    16    1
    19    16    17    1
    20    16    18    1
    21    16    19    1
    22    12    13   ar
    23    13    14   ar
    24     6     7    1
    25     7     8    1
    26    26    27   ar
    27    27    28   ar
    28    28    29   ar
    29    29    30    1
    30    30    31   ar
    31    31    32   ar
    32    32    33   ar
    33    33    34   ar
    34    34    35   ar
    35    29    25   ar
    36    35    30   ar
    37     8     1    1
    38     7     3    1
    39    14     9   ar
@<TRIPOS>MOLECULE
*****
 35 39 0 0 0
SMALL
GASTEIGER

@<TRIPOS>ATOM
      1 N         139.8295  142.4328  160.8473 N.3     1  UNL1       -0.2712
      2 C         141.1057  142.9452  160.2484 C.3     1  UNL1        0.0738
      3 C         142.0820  143.1743  161.3640 C.3     1  UNL1        0.0372
      4 C         143.4741  143.6325  161.6834 C.3     1  UNL1        0.0245
      5 C         143.6616  143.5450  163.1690 C.3     1  UNL1        0.0909
      6 N         142.3853  143.0326  163.7679 N.pl3   1  UNL1       -0.3077
      7 C         141.4091  142.8035  162.6523 C.3     1  UNL1        0.0901
      8 C         140.0169  142.3452  162.3330 C.3     1  UNL1        0.0921
      9 C         142.1301  142.7916  165.2263 C.ar    1  UNL1        0.0480
     10 C         143.2570  142.3812  166.1271 C.ar    1  UNL1        0.0176
     11 C         143.0018  142.1402  167.5854 C.ar    1  UNL1        0.0385
     12 C         141.6197  142.3097  168.1430 C.ar    1  UNL1        0.1469
     13 C         140.4926  142.7202  167.2422 C.ar    1  UNL1        0.0385
     14 C         140.7478  142.9612  165.7838 C.ar    1  UNL1        0.0176
     15 O         141.3645  142.0687  169.6013 O.3     1  UNL1       -0.4045
     16 C         140.2946  142.8423  170.3133 C.3     1  UNL1        0.5753
     17 F         139.2247  143.6158  171.0254 F       1  UNL1       -0.1328
     18 F         141.1268  144.0861  170.2123 F       1  UNL1       -0.1328
     19 F         139.4625  141.5983  170.4144 F       1  UNL1       -0.1328
     20 C         138.5843  142.0715  160.0930 C.3     1  UNL1        0.0731
     21 C         138.3033  140.6380  159.7522 C.3     1  UNL1        0.0294
     22 C         137.2849  139.8660  160.5377 C.3     1  UNL1        0.0666
     23 S         137.7216  138.7476  161.4368 S.3     1  UNL1       -0.0756
     24 C         140.9513  138.2851  161.3690 C.3     1  UNL1        0.1340
     25 N         140.1595  138.8065  162.5314 N.ar    1  UNL1       -0.2872
     26 C         138.6749  139.0190  162.5626 C.ar    1  UNL1        0.1933
     27 N         138.3111  139.5507  163.9172 N.ar    1  UNL1       -0.1221
     28 N         139.5708  139.6668  164.7233 N.ar    1  UNL1       -0.1266
     29 C         140.7132  139.2068  163.8668 C.ar    1  UNL1        0.1862
     30 C         142.1559  139.1561  164.2743 C.ar    1  UNL1        0.1362
     31 C         142.5448  138.5297  165.5805 C.ar    1  UNL1        0.1211
     32 N         143.9875  138.4790  165.9880 N.ar    1  UNL1       -0.2390
     33 C         145.0414  139.0547  165.0890 C.ar    1  UNL1        0.1195
     34 C         144.6525  139.6811  163.7827 C.ar    1  UNL1        0.1196
     35 N         143.2097  139.7318  163.3753 N.ar    1  UNL1       -0.2375
@<TRIPOS>BOND
     1    24    25    1
     2    25    26   ar
     3    26    23    1
     4    23    22    1
     5    22    21    1
     6    21    20    1
     7    20     1    1
     8     1     2    1
     9     2     3    1
    10     3     4    1
    11     4     5    1
    12     5     6    1
    13     6     9    1
    14     9    10   ar
    15    10    11   ar
    16    11    12   ar
    17    12    15    1
    18    15    16    1
    19    16    17    1
    20    16    18    1
    21    16    19    1
    22    12    13   ar
    23    13    14   ar
    24     6     7    1
    25     7     8    1
    26    26    27   ar
    27    27    28   ar
    28    28    29   ar
    29    29    30    1
    30    30    31   ar
    31    31    32   ar
    32    32    33   ar
    33    33    34   ar
    34    34    35   ar
    35    29    25   ar
    36    35    30   ar
    37     8     1    1
    38     7     3    1
    39    14     9   ar
@<TRIPOS>MOLECULE
*****
 35 39 0 0 0
SMALL
GASTEIGER

@<TRIPOS>ATOM
      1 N         138.4350  141.0631  160.9979 N.3     1  UNL1       -0.2712
      2 C         138.1094  142.5256  160.9268 C.3     1  UNL1        0.0738
      3 C         138.2853  143.1068  162.2984 C.3     1  UNL1        0.0372
      4 C         138.1927  144.3699  163.1022 C.3     1  UNL1        0.0245
      5 C         138.5699  144.0472  164.5178 C.3     1  UNL1        0.0909
      6 N         138.8956  142.5847  164.5888 N.pl3   1  UNL1       -0.3077
      7 C         138.7197  142.0035  163.2172 C.3     1  UNL1        0.0901
      8 C         138.8122  140.7404  162.4134 C.3     1  UNL1        0.0921
      9 C         139.3222  141.8350  165.8160 C.ar    1  UNL1        0.0480
     10 C         138.8509  140.4283  166.0372 C.ar    1  UNL1        0.0176
     11 C         139.2776  139.6786  167.2643 C.ar    1  UNL1        0.0385
     12 C         140.1755  140.3356  168.2703 C.ar    1  UNL1        0.1469
     13 C         140.6468  141.7425  168.0491 C.ar    1  UNL1        0.0385
     14 C         140.2201  142.4921  166.8220 C.ar    1  UNL1        0.0176
     15 O         140.6021  139.5860  169.4975 O.3     1  UNL1       -0.4045
     16 C         141.9866  139.7690  170.0447 C.3     1  UNL1        0.5753
     17 F         143.3713  139.9521  170.5919 F       1  UNL1       -0.1328
     18 F         141.4245  140.5178  171.2166 F       1  UNL1       -0.1328
     19 F         142.5488  139.0203  168.8728 F       1  UNL1       -0.1328
     20 C         138.3912  140.0935  159.8543 C.3     1  UNL1        0.0731
     21 C         139.1927  138.8270  159.9137 C.3     1  UNL1        0.0294
     22 C         140.0970  138.4575  158.7754 C.3     1  UNL1        0.0666
     23 S         141.5557  138.8020  158.8341 S.3     1  UNL1       -0.0756
     24 C         141.5632  142.0038  159.4654 C.3     1  UNL1        0.1340
     25 N         142.1261  140.9297  160.3483 N.ar    1  UNL1       -0.2872
     26 C         142.1226  139.4580  160.0581 C.ar    1  UNL1        0.1933
     27 N         142.7856  138.7574  161.2069 N.ar    1  UNL1       -0.1221
     28 N         143.1989  139.7961  162.2070 N.ar    1  UNL1       -0.1266
     29 C         142.7913  141.1387  161.6764 C.ar    1  UNL1        0.1862
     30 C         143.0104  142.4585  162.3548 C.ar    1  UNL1        0.1362
     31 C         144.0959  143.3766  161.8766 C.ar    1  UNL1        0.1211
     32 N         144.3150  144.6963  162.5550 N.ar    1  UNL1       -0.2390
     33 C         143.4485  145.0979  163.7117 C.ar    1  UNL1        0.1195
     34 C         142.3630  144.1798  164.1900 C.ar    1  UNL1        0.1196
     35 N         142.1439  142.8601  163.5115 N.ar    1  UNL1       -0.2375
@<TRIPOS>BOND
     1    24    25    1
     2    25    26   ar
     3    26    23    1
     4    23    22    1
     5    22    21    1
     6    21    20    1
     7    20     1    1
     8     1     2    1
     9     2     3    1
    10     3     4    1
    11     4     5    1
    12     5     6    1
    13     6     9    1
    14     9    10   ar
    15    10    11   ar
    16    11    12   ar
    17    12    15    1
    18    15    16    1
    19    16    17    1
    20    16    18    1
    21    16    19    1
    22    12    13   ar
    23    13    14   ar
    24     6     7    1
    25     7     8    1
    26    26    27   ar
    27    27    28   ar
    28    28    29   ar
    29    29    30    1
    30    30    31   ar
    31    31    32   ar
    32    32    33   ar
    33    33    34   ar
    34    34    35   ar
    35    29    25   ar
    36    35    30   ar
    37     8     1    1
    38     7     3    1
    39    14     9   ar
@<TRIPOS>MOLECULE
*****
 35 39 0 0 0
SMALL
GASTEIGER

@<TRIPOS>ATOM
      1 N         141.5181  139.0625  160.6906 N.3     1  UNL1       -0.2712
      2 C         140.1854  138.3766  160.6326 C.3     1  UNL1        0.0738
      3 C         139.6939  138.1992  162.0387 C.3     1  UNL1        0.0372
      4 C         138.5665  137.6656  162.8719 C.3     1  UNL1        0.0245
      5 C         138.8986  137.9121  164.3138 C.3     1  UNL1        0.0909
      6 N         140.2314  138.5981  164.3717 N.pl3   1  UNL1       -0.3077
      7 C         140.7229  138.7755  162.9656 C.3     1  UNL1        0.0901
      8 C         141.8503  139.3091  162.1324 C.3     1  UNL1        0.0921
      9 C         140.9470  139.0307  165.6170 C.ar    1  UNL1        0.0480
     10 C         142.3981  138.6990  165.8017 C.ar    1  UNL1        0.0176
     11 C         143.1137  139.1317  167.0470 C.ar    1  UNL1        0.0385
     12 C         142.3781  139.8959  168.1076 C.ar    1  UNL1        0.1469
     13 C         140.9269  140.2277  167.9229 C.ar    1  UNL1        0.0385
     14 C         140.2114  139.7950  166.6775 C.ar    1  UNL1        0.0176
     15 O         143.0937  140.3285  169.3529 O.3     1  UNL1       -0.4045
     16 C         143.0278  141.7597  169.7970 C.3     1  UNL1        0.5753
     17 F         142.9618  143.1910  170.2412 F       1  UNL1       -0.1328
     18 F         143.6352  142.1916  168.4953 F       1  UNL1       -0.1328
     19 F         142.4203  141.3277  171.0988 F       1  UNL1       -0.1328
     20 C         142.3693  139.4363  159.5134 C.3     1  UNL1        0.0731
     21 C         143.7368  140.0133  159.7297 C.3     1  UNL1        0.0294
     22 C         144.0780  141.3636  159.1724 C.3     1  UNL1        0.0666
     23 S         144.4054  142.4966  160.0991 S.3     1  UNL1       -0.0756
     24 C         141.2190  143.1187  160.4299 C.3     1  UNL1        0.1340
     25 N         142.2009  142.9285  161.5478 N.ar    1  UNL1       -0.2872
     26 C         143.6655  142.6426  161.3958 C.ar    1  UNL1        0.1933
     27 N         144.2604  142.5282  162.7680 N.ar    1  UNL1       -0.1221
     28 N         143.1634  142.7434  163.7682 N.ar    1  UNL1       -0.1266
     29 C         141.8905  142.9909  163.0141 C.ar    1  UNL1        0.1862
     30 C         140.5438  143.2544  163.6199 C.ar    1  UNL1        0.1362
     31 C         139.4825  142.1952  163.5784 C.ar    1  UNL1        0.1211
     32 N         138.1358  142.4587  164.1841 N.ar    1  UNL1       -0.2390
     33 C         137.8505  143.7815  164.8315 C.ar    1  UNL1        0.1195
     34 C         138.9118  144.8407  164.8730 C.ar    1  UNL1        0.1196
     35 N         140.2585  144.5771  164.2672 N.ar    1  UNL1       -0.2375
@<TRIPOS>BOND
     1    24    25    1
     2    25    26   ar
     3    26    23    1
     4    23    22    1
     5    22    21    1
     6    21    20    1
     7    20     1    1
     8     1     2    1
     9     2     3    1
    10     3     4    1
    11     4     5    1
    12     5     6    1
    13     6     9    1
    14     9    10   ar
    15    10    11   ar
    16    11    12   ar
    17    12    15    1
    18    15    16    1
    19    16    17    1
    20    16    18    1
    21    16    19    1
    22    12    13   ar
    23    13    14   ar
    24     6     7    1
    25     7     8    1
    26    26    27   ar
    27    27    28   ar
    28    28    29   ar
    29    29    30    1
    30    30    31   ar
    31    31    32   ar
    32    32    33   ar
    33    33    34   ar
    34    34    35   ar
    35    29    25   ar
    36    35    30   ar
    37     8     1    1
    38     7     3    1
    39    14     9   ar
@<TRIPOS>MOLECULE
*****
 35 39 0 0 0
SMALL
GASTEIGER

@<TRIPOS>ATOM
      1 N         140.9255  142.5754  160.4637 N.3     1  UNL1       -0.2712
      2 C         139.5870  143.2518  160.4932 C.3     1  UNL1        0.0738
      3 C         139.2430  143.5365  161.9252 C.3     1  UNL1        0.0372
      4 C         138.2032  144.1306  162.8284 C.3     1  UNL1        0.0245
      5 C         138.6864  143.9973  164.2422 C.3     1  UNL1        0.0909
      6 N         140.0250  143.3209  164.2127 N.pl3   1  UNL1       -0.3077
      7 C         140.3689  143.0361  162.7807 C.3     1  UNL1        0.0901
      8 C         141.4088  142.4421  161.8775 C.3     1  UNL1        0.0921
      9 C         140.8710  142.9878  165.4057 C.ar    1  UNL1        0.0480
     10 C         142.3480  142.7824  165.2440 C.ar    1  UNL1        0.0176
     11 C         143.1940  142.4493  166.4370 C.ar    1  UNL1        0.0385
     12 C         142.5629  142.3215  167.7918 C.ar    1  UNL1        0.1469
     13 C         141.0858  142.5268  167.9536 C.ar    1  UNL1        0.0385
     14 C         140.2398  142.8599  166.7605 C.ar    1  UNL1        0.0176
     15 O         143.4089  141.9883  168.9848 O.3     1  UNL1       -0.4045
     16 C         142.8841  141.0618  170.0413 C.3     1  UNL1        0.5753
     17 F         142.3592  140.1353  171.0978 F       1  UNL1       -0.1328
     18 F         143.0354  139.9034  169.1005 F       1  UNL1       -0.1328
     19 F         142.7327  142.2204  170.9820 F       1  UNL1       -0.1328
     20 C         141.6531  142.1133  159.2360 C.3     1  UNL1        0.0731
     21 C         140.8812  141.6898  158.0216 C.3     1  UNL1        0.0294
     22 C         141.0008  140.2852  157.5090 C.3     1  UNL1        0.0666
     23 S         139.9478  139.2715  157.8460 S.3     1  UNL1       -0.0756
     24 C         140.9265  138.5175  160.8665 C.3     1  UNL1        0.1340
     25 N         139.5864  139.0745  160.4871 N.ar    1  UNL1       -0.2872
     26 C         139.1366  139.4211  159.0988 C.ar    1  UNL1        0.1933
     27 N         137.7330  139.9435  159.1831 N.ar    1  UNL1       -0.1221
     28 N         137.3154  139.9198  160.6236 N.ar    1  UNL1       -0.1266
     29 C         138.4608  139.3827  161.4296 C.ar    1  UNL1        0.1862
     30 C         138.4777  139.1881  162.9168 C.ar    1  UNL1        0.1362
     31 C         138.1413  140.3320  163.8268 C.ar    1  UNL1        0.1211
     32 N         138.1582  140.1374  165.3141 N.ar    1  UNL1       -0.2390
     33 C         138.5116  138.7987  165.8912 C.ar    1  UNL1        0.1195
     34 C         138.8480  137.6547  164.9812 C.ar    1  UNL1        0.1196
     35 N         138.8311  137.8494  163.4940 N.ar    1  UNL1       -0.2375
@<TRIPOS>BOND
     1    24    25    1
     2    25    26   ar
     3    26    23    1
     4    23    22    1
     5    22    21    1
     6    21    20    1
     7    20     1    1
     8     1     2    1
     9     2     3    1
    10     3     4    1
    11     4     5    1
    12     5     6    1
    13     6     9    1
    14     9    10   ar
    15    10    11   ar
    16    11    12   ar
    17    12    15    1
    18    15    16    1
    19    16    17    1
    20    16    18    1
    21    16    19    1
    22    12    13   ar
    23    13    14   ar
    24     6     7    1
    25     7     8    1
    26    26    27   ar
    27    27    28   ar
    28    28    29   ar
    29    29    30    1
    30    30    31   ar
    31    31    32   ar
    32    32    33   ar
    33    33    34   ar
    34    34    35   ar
    35    29    25   ar
    36    35    30   ar
    37     8     1    1
    38     7     3    1
    39    14     9   ar
@<TRIPOS>MOLECULE
*****
 35 39 0 0 0
SMALL
GASTEIGER

@<TRIPOS>ATOM
      1 N         142.6038  138.5079  161.6185 N.3     1  UNL1       -0.2712
      2 C         141.2582  137.9456  161.2676 C.3     1  UNL1        0.0738
      3 C         140.3979  138.0020  162.4950 C.3     1  UNL1        0.0372
      4 C         139.0345  137.6894  163.0368 C.3     1  UNL1        0.0245
      5 C         139.0057  138.0933  164.4811 C.3     1  UNL1        0.0909
      6 N         140.3514  138.6556  164.8320 N.pl3   1  UNL1       -0.3077
      7 C         141.2117  138.5992  163.6046 C.3     1  UNL1        0.0901
      8 C         142.5751  138.9119  163.0628 C.3     1  UNL1        0.0921
      9 C         140.7642  139.1819  166.1746 C.ar    1  UNL1        0.0480
     10 C         139.7369  139.7616  167.1012 C.ar    1  UNL1        0.0176
     11 C         140.1497  140.2879  168.4438 C.ar    1  UNL1        0.0385
     12 C         141.5898  140.2346  168.8598 C.ar    1  UNL1        0.1469
     13 C         142.6173  139.6549  167.9332 C.ar    1  UNL1        0.0385
     14 C         142.2045  139.1286  166.5906 C.ar    1  UNL1        0.0176
     15 O         142.0026  140.7609  170.2024 O.3     1  UNL1       -0.4045
     16 C         142.4810  142.1760  170.3385 C.3     1  UNL1        0.5753
     17 F         142.9595  143.5912  170.4746 F       1  UNL1       -0.1328
     18 F         141.0728  142.6280  170.5883 F       1  UNL1       -0.1328
     19 F         143.8893  141.7239  170.0887 F       1  UNL1       -0.1328
     20 C         143.7729  138.6427  160.6884 C.3     1  UNL1        0.0731
     21 C         143.7726  139.7085  159.6329 C.3     1  UNL1        0.0294
     22 C         142.9312  139.5449  158.4019 C.3     1  UNL1        0.0666
     23 S         141.8585  140.5453  158.0883 S.3     1  UNL1       -0.0756
     24 C         141.7441  142.5552  160.6567 C.3     1  UNL1        0.1340
     25 N         140.6448  141.6413  160.2028 N.ar    1  UNL1       -0.2872
     26 C         140.6973  140.7174  159.0222 C.ar    1  UNL1        0.1933
     27 N         139.3849  139.9958  158.9394 N.ar    1  UNL1       -0.1221
     28 N         138.5212  140.4737  160.0689 N.ar    1  UNL1       -0.1266
     29 C         139.2998  141.4907  160.8497 C.ar    1  UNL1        0.1862
     30 C         138.8180  142.2276  162.0641 C.ar    1  UNL1        0.1362
     31 C         138.9810  141.6181  163.4250 C.ar    1  UNL1        0.1211
     32 N         138.4992  142.3550  164.6394 N.ar    1  UNL1       -0.2390
     33 C         137.8545  143.7015  164.4929 C.ar    1  UNL1        0.1195
     34 C         137.6915  144.3110  163.1321 C.ar    1  UNL1        0.1196
     35 N         138.1733  143.5740  161.9176 N.ar    1  UNL1       -0.2375
@<TRIPOS>BOND
     1    24    25    1
     2    25    26   ar
     3    26    23    1
     4    23    22    1
     5    22    21    1
     6    21    20    1
     7    20     1    1
     8     1     2    1
     9     2     3    1
    10     3     4    1
    11     4     5    1
    12     5     6    1
    13     6     9    1
    14     9    10   ar
    15    10    11   ar
    16    11    12   ar
    17    12    15    1
    18    15    16    1
    19    16    17    1
    20    16    18    1
    21    16    19    1
    22    12    13   ar
    23    13    14   ar
    24     6     7    1
    25     7     8    1
    26    26    27   ar
    27    27    28   ar
    28    28    29   ar
    29    29    30    1
    30    30    31   ar
    31    31    32   ar
    32    32    33   ar
    33    33    34   ar
    34    34    35   ar
    35    29    25   ar
    36    35    30   ar
    37     8     1    1
    38     7     3    1
    39    14     9   ar
@<TRIPOS>MOLECULE
*****
 35 39 0 0 0
SMALL
GASTEIGER

@<TRIPOS>ATOM
      1 N         138.7507  139.5271  161.4707 N.3     1  UNL1       -0.2712
      2 C         139.3859  138.1697  161.4073 C.3     1  UNL1        0.0738
      3 C         140.1939  137.9773  162.6564 C.3     1  UNL1        0.0372
      4 C         141.0859  137.0195  163.3892 C.3     1  UNL1        0.0245
      5 C         141.5014  137.6660  164.6774 C.3     1  UNL1        0.0909
      6 N         140.8661  139.0234  164.7408 N.pl3   1  UNL1       -0.3077
      7 C         140.0581  139.2158  163.4917 C.3     1  UNL1        0.0901
      8 C         139.1661  140.1736  162.7590 C.3     1  UNL1        0.0921
      9 C         141.0130  140.0144  165.8572 C.ar    1  UNL1        0.0480
     10 C         142.1443  139.8822  166.8333 C.ar    1  UNL1        0.0176
     11 C         142.2912  140.8732  167.9497 C.ar    1  UNL1        0.0385
     12 C         141.3070  141.9963  168.0900 C.ar    1  UNL1        0.1469
     13 C         140.1757  142.1285  167.1139 C.ar    1  UNL1        0.0385
     14 C         140.0287  141.1376  165.9975 C.ar    1  UNL1        0.0176
     15 O         141.4539  142.9873  169.2064 O.3     1  UNL1       -0.4045
     16 C         140.3202  143.2143  170.1619 C.3     1  UNL1        0.5753
     17 F         139.1863  143.4412  171.1174 F       1  UNL1       -0.1328
     18 F         140.3830  144.6874  169.8865 F       1  UNL1       -0.1328
     19 F         140.2573  141.7410  170.4372 F       1  UNL1       -0.1328
     20 C         137.8569  140.1318  160.4289 C.3     1  UNL1        0.0731
     21 C         138.4532  140.8073  159.2297 C.3     1  UNL1        0.0294
     22 C         139.2338  140.0076  158.2290 C.3     1  UNL1        0.0666
     23 S         140.7113  140.2226  158.0855 S.3     1  UNL1       -0.0756
     24 C         141.4815  142.5654  160.2227 C.3     1  UNL1        0.1340
     25 N         141.9647  141.1458  160.2584 N.ar    1  UNL1       -0.2872
     26 C         141.6107  140.0689  159.2761 C.ar    1  UNL1        0.1933
     27 N         142.3139  138.8114  159.6933 N.ar    1  UNL1       -0.1221
     28 N         143.1026  139.1110  160.9336 N.ar    1  UNL1       -0.1266
     29 C         142.8868  140.5538  161.2829 C.ar    1  UNL1        0.1862
     30 C         143.4875  141.2774  162.4514 C.ar    1  UNL1        0.1362
     31 C         144.9731  141.2648  162.6582 C.ar    1  UNL1        0.1211
     32 N         145.5739  141.9884  163.8268 N.ar    1  UNL1       -0.2390
     33 C         144.6889  142.7247  164.7884 C.ar    1  UNL1        0.1195
     34 C         143.2033  142.7374  164.5816 C.ar    1  UNL1        0.1196
     35 N         142.6026  142.0137  163.4130 N.ar    1  UNL1       -0.2375
@<TRIPOS>BOND
     1    24    25    1
     2    25    26   ar
     3    26    23    1
     4    23    22    1
     5    22    21    1
     6    21    20    1
     7    20     1    1
     8     1     2    1
     9     2     3    1
    10     3     4    1
    11     4     5    1
    12     5     6    1
    13     6     9    1
    14     9    10   ar
    15    10    11   ar
    16    11    12   ar
    17    12    15    1
    18    15    16    1
    19    16    17    1
    20    16    18    1
    21    16    19    1
    22    12    13   ar
    23    13    14   ar
    24     6     7    1
    25     7     8    1
    26    26    27   ar
    27    27    28   ar
    28    28    29   ar
    29    29    30    1
    30    30    31   ar
    31    31    32   ar
    32    32    33   ar
    33    33    34   ar
    34    34    35   ar
    35    29    25   ar
    36    35    30   ar
    37     8     1    1
    38     7     3    1
    39    14     9   ar
