@<TRIPOS>MOLECULE
*****
 31 34 0 0 0
SMALL
GASTEIGER

@<TRIPOS>ATOM
      1 C         142.6435  143.9634  161.6207 C.ar    1  UNL1        0.2168
      2 N         144.0611  144.0226  162.1074 N.ar    1  UNL1       -0.1210
      3 N         144.1001  143.4486  163.4927 N.ar    1  UNL1       -0.1393
      4 C         142.7065  143.0345  163.8621 C.ar    1  UNL1        0.1351
      5 S         141.8063  143.3526  162.7052 S.2     1  UNL1       -0.0262
      6 C         140.0384  145.8572  161.0949 C.3     1  UNL1        0.0520
      7 C         140.9524  145.3029  160.0425 C.ar    1  UNL1        0.0615
      8 C         140.8294  145.5219  158.5637 C.ar    1  UNL1        0.0228
      9 C         141.9508  144.7867  157.8914 C.ar    1  UNL1        0.0789
     10 N         142.7668  144.1134  158.9548 N.ar    1  UNL1       -0.1683
     11 N         142.1498  144.4325  160.2842 N.ar    1  UNL1       -0.2100
     12 C         142.0839  144.8254  156.3979 C.3     1  UNL1        0.0647
     13 C         141.0957  145.5992  155.5766 C.3     1  UNL1        0.0788
     14 N         139.9743  146.3343  156.2489 N.3     1  UNL1       -0.2682
     15 C         139.8411  146.2957  157.7424 C.3     1  UNL1        0.1016
     16 C         138.9860  147.1082  155.4275 C.3     1  UNL1        0.0783
     17 C         139.2070  148.5689  155.1681 C.3     1  UNL1        0.0590
     18 C         138.5307  149.5944  156.0290 C.2     1  UNL1        0.0517
     19 O         138.0814  150.8955  155.4329 O.co2   1  UNL1       -0.5491
     20 O         138.3037  149.3187  157.4858 O.co2   1  UNL1       -0.5491
     21 C         142.2868  142.4116  165.1605 C.ar    1  UNL1        0.0267
     22 C         141.0724  141.5326  165.2128 C.ar    1  UNL1        0.0052
     23 C         140.6527  140.9097  166.5111 C.ar    1  UNL1        0.0378
     24 C         141.4474  141.1659  167.7573 C.ar    1  UNL1        0.1488
     25 C         142.6616  142.0448  167.7051 C.ar    1  UNL1        0.0916
     26 CL        143.4564  142.3010  168.9513 Cl      1  UNL1       -0.0791
     27 C         143.0814  142.6677  166.4067 C.ar    1  UNL1        0.0165
     28 O         141.0277  140.5430  169.0558 O.3     1  UNL1       -0.4783
     29 C         139.8644  141.1068  169.8166 C.3     1  UNL1        0.1662
     30 C         138.6334  140.2763  170.0286 C.3     1  UNL1        0.0472
     31 C         139.9321  142.5010  170.3656 C.3     1  UNL1        0.0472
@<TRIPOS>UNITY_ATOM_ATTR
19 1
charge -1
@<TRIPOS>BOND
     1     6     7    1
     2     7     8   ar
     3     8     9   ar
     4     9    10   ar
     5    10    11   ar
     6    11     1    1
     7     1     2   ar
     8     2     3   ar
     9     3     4   ar
    10     4    21    1
    11    21    22   ar
    12    22    23   ar
    13    23    24   ar
    14    24    28    1
    15    28    29    1
    16    29    30    1
    17    29    31    1
    18    24    25   ar
    19    25    26    1
    20    25    27   ar
    21     4     5   ar
    22     9    12    1
    23    12    13    1
    24    13    14    1
    25    14    16    1
    26    16    17    1
    27    17    18    1
    28    18    19   ar
    29    18    20   ar
    30    14    15    1
    31    11     7   ar
    32     5     1   ar
    33    15     8    1
    34    27    21   ar
@<TRIPOS>MOLECULE
*****
 31 34 0 0 0
SMALL
GASTEIGER

@<TRIPOS>ATOM
      1 C         140.4877  144.8233  162.0583 C.ar    1  UNL1        0.2168
      2 N         139.7551  146.1297  161.9753 N.ar    1  UNL1       -0.1210
      3 N         139.6429  146.5071  160.5279 N.ar    1  UNL1       -0.1393
      4 C         140.3060  145.4341  159.7163 C.ar    1  UNL1        0.1351
      5 S         140.8282  144.3935  160.6621 S.2     1  UNL1       -0.0262
      6 C         138.3441  143.4460  164.0972 C.3     1  UNL1        0.0520
      7 C         139.8359  143.4447  164.2536 C.ar    1  UNL1        0.0615
      8 C         140.6043  142.8101  165.3747 C.ar    1  UNL1        0.0228
      9 C         142.0645  143.0510  165.1304 C.ar    1  UNL1        0.0789
     10 N         142.1986  143.8345  163.8583 N.ar    1  UNL1       -0.1683
     11 N         140.8212  144.0778  163.3164 N.ar    1  UNL1       -0.2100
     12 C         143.0835  142.5259  166.0978 C.3     1  UNL1        0.0647
     13 C         142.6422  141.7598  167.3095 C.3     1  UNL1        0.0788
     14 N         141.1820  141.5189  167.5539 N.3     1  UNL1       -0.2682
     15 C         140.1630  142.0440  166.5865 C.3     1  UNL1        0.1016
     16 C         140.7407  140.7528  168.7657 C.3     1  UNL1        0.0783
     17 C         139.7055  141.3323  169.6835 C.3     1  UNL1        0.0590
     18 C         140.0495  142.5002  170.5598 C.2     1  UNL1        0.0517
     19 O         140.3848  142.2803  172.0052 O.co2   1  UNL1       -0.5491
     20 O         140.0581  143.8880  169.9906 O.co2   1  UNL1       -0.5491
     21 C         140.4260  145.4064  158.2214 C.ar    1  UNL1        0.0267
     22 C         141.2167  144.3214  157.5523 C.ar    1  UNL1        0.0052
     23 C         141.3366  144.2939  156.0574 C.ar    1  UNL1        0.0378
     24 C         140.6660  145.3513  155.2316 C.ar    1  UNL1        0.1488
     25 C         139.8754  146.4362  155.9006 C.ar    1  UNL1        0.0916
     26 CL        139.2047  147.4938  155.0747 Cl      1  UNL1       -0.0791
     27 C         139.7554  146.4639  157.3955 C.ar    1  UNL1        0.0165
     28 O         140.7860  145.3237  153.7365 O.3     1  UNL1       -0.4783
     29 C         141.9259  146.0282  153.0625 C.3     1  UNL1        0.1662
     30 C         143.3010  145.4297  153.0933 C.3     1  UNL1        0.0472
     31 C         141.6907  147.3312  152.3577 C.3     1  UNL1        0.0472
@<TRIPOS>UNITY_ATOM_ATTR
19 1
charge -1
@<TRIPOS>BOND
     1     6     7    1
     2     7     8   ar
     3     8     9   ar
     4     9    10   ar
     5    10    11   ar
     6    11     1    1
     7     1     2   ar
     8     2     3   ar
     9     3     4   ar
    10     4    21    1
    11    21    22   ar
    12    22    23   ar
    13    23    24   ar
    14    24    28    1
    15    28    29    1
    16    29    30    1
    17    29    31    1
    18    24    25   ar
    19    25    26    1
    20    25    27   ar
    21     4     5   ar
    22     9    12    1
    23    12    13    1
    24    13    14    1
    25    14    16    1
    26    16    17    1
    27    17    18    1
    28    18    19   ar
    29    18    20   ar
    30    14    15    1
    31    11     7   ar
    32     5     1   ar
    33    15     8    1
    34    27    21   ar
@<TRIPOS>MOLECULE
*****
 31 34 0 0 0
SMALL
GASTEIGER

@<TRIPOS>ATOM
      1 C         139.2005  139.5195  160.7454 C.ar    1  UNL1        0.2168
      2 N         138.2571  140.2060  159.8027 N.ar    1  UNL1       -0.1210
      3 N         138.5247  139.6885  158.4204 N.ar    1  UNL1       -0.1393
      4 C         139.6335  138.6822  158.5089 C.ar    1  UNL1        0.1351
      5 S         140.0511  138.5777  159.9458 S.2     1  UNL1       -0.0262
      6 C         140.8459  141.9024  162.2501 C.3     1  UNL1        0.0520
      7 C         140.0356  140.8319  162.9191 C.ar    1  UNL1        0.0615
      8 C         139.8394  140.6689  164.3973 C.ar    1  UNL1        0.0228
      9 C         138.9618  139.4729  164.6192 C.ar    1  UNL1        0.0789
     10 N         138.6157  138.8967  163.2782 N.ar    1  UNL1       -0.1683
     11 N         139.2793  139.7367  162.2275 N.ar    1  UNL1       -0.2100
     12 C         138.5913  139.0629  166.0137 C.3     1  UNL1        0.0647
     13 C         139.0984  139.8490  167.1862 C.3     1  UNL1        0.0788
     14 N         139.9760  141.0450  166.9643 N.3     1  UNL1       -0.2682
     15 C         140.3465  141.4550  165.5698 C.3     1  UNL1        0.1016
     16 C         140.4831  141.8311  168.1369 C.3     1  UNL1        0.0783
     17 C         139.9212  141.5834  169.5054 C.3     1  UNL1        0.0590
     18 C         140.1279  142.5932  170.5952 C.2     1  UNL1        0.0517
     19 O         139.9380  144.0536  170.3103 O.co2   1  UNL1       -0.5491
     20 O         140.5245  142.1426  171.9699 O.co2   1  UNL1       -0.5491
     21 C         140.2215  137.9150  157.3619 C.ar    1  UNL1        0.0267
     22 C         139.3446  137.4702  156.2290 C.ar    1  UNL1        0.0052
     23 C         139.9327  136.7030  155.0821 C.ar    1  UNL1        0.0378
     24 C         141.3975  136.3806  155.0679 C.ar    1  UNL1        0.1488
     25 C         142.2743  136.8253  156.2007 C.ar    1  UNL1        0.0916
     26 CL        143.7393  136.5028  156.1866 Cl      1  UNL1       -0.0791
     27 C         141.6863  137.5925  157.3477 C.ar    1  UNL1        0.0165
     28 O         141.9855  135.6133  153.9209 O.3     1  UNL1       -0.4783
     29 C         141.7699  134.1323  153.8201 C.3     1  UNL1        0.1662
     30 C         141.6031  133.3123  155.0650 C.3     1  UNL1        0.0472
     31 C         141.7210  133.4713  152.4745 C.3     1  UNL1        0.0472
@<TRIPOS>UNITY_ATOM_ATTR
19 1
charge -1
@<TRIPOS>BOND
     1     6     7    1
     2     7     8   ar
     3     8     9   ar
     4     9    10   ar
     5    10    11   ar
     6    11     1    1
     7     1     2   ar
     8     2     3   ar
     9     3     4   ar
    10     4    21    1
    11    21    22   ar
    12    22    23   ar
    13    23    24   ar
    14    24    28    1
    15    28    29    1
    16    29    30    1
    17    29    31    1
    18    24    25   ar
    19    25    26    1
    20    25    27   ar
    21     4     5   ar
    22     9    12    1
    23    12    13    1
    24    13    14    1
    25    14    16    1
    26    16    17    1
    27    17    18    1
    28    18    19   ar
    29    18    20   ar
    30    14    15    1
    31    11     7   ar
    32     5     1   ar
    33    15     8    1
    34    27    21   ar
@<TRIPOS>MOLECULE
*****
 31 34 0 0 0
SMALL
GASTEIGER

@<TRIPOS>ATOM
      1 C         142.7757  143.8329  161.7756 C.ar    1  UNL1        0.2168
      2 N         144.0404  144.2648  162.4569 N.ar    1  UNL1       -0.1210
      3 N         144.0572  143.6604  163.8296 N.ar    1  UNL1       -0.1393
      4 C         142.8029  142.8549  163.9968 C.ar    1  UNL1        0.1351
      5 S         142.0109  142.9615  162.7274 S.2     1  UNL1       -0.0262
      6 C         140.2341  145.7234  160.9911 C.3     1  UNL1        0.0520
      7 C         141.1823  145.0757  160.0260 C.ar    1  UNL1        0.0615
      8 C         141.1286  145.1833  158.5308 C.ar    1  UNL1        0.0228
      9 C         142.2638  144.3808  157.9673 C.ar    1  UNL1        0.0789
     10 N         143.0189  143.7773  159.1143 N.ar    1  UNL1       -0.1683
     11 N         142.3505  144.2068  160.3866 N.ar    1  UNL1       -0.2100
     12 C         142.4631  144.3033  156.4827 C.3     1  UNL1        0.0647
     13 C         141.5273  145.0283  155.5615 C.3     1  UNL1        0.0788
     14 N         140.3922  145.8308  156.1249 N.3     1  UNL1       -0.2682
     15 C         140.1928  145.9083  157.6096 C.3     1  UNL1        0.1016
     16 C         139.4564  146.5558  155.2037 C.3     1  UNL1        0.0783
     17 C         138.0337  146.1000  155.0689 C.3     1  UNL1        0.0590
     18 C         137.7287  144.6469  154.8553 C.2     1  UNL1        0.0517
     19 O         138.5629  143.8369  153.9077 O.co2   1  UNL1       -0.5491
     20 O         136.5896  144.0039  155.5894 O.co2   1  UNL1       -0.5491
     21 C         142.4096  142.0790  165.2188 C.ar    1  UNL1        0.0267
     22 C         141.3736  142.6278  166.1545 C.ar    1  UNL1        0.0052
     23 C         140.9804  141.8518  167.3764 C.ar    1  UNL1        0.0378
     24 C         141.6231  140.5271  167.6627 C.ar    1  UNL1        0.1488
     25 C         142.6591  139.9783  166.7271 C.ar    1  UNL1        0.0916
     26 CL        143.3019  138.6535  167.0133 Cl      1  UNL1       -0.0791
     27 C         143.0524  140.7542  165.5051 C.ar    1  UNL1        0.0165
     28 O         141.2299  139.7511  168.8847 O.3     1  UNL1       -0.4783
     29 C         140.4236  140.4101  169.9644 C.3     1  UNL1        0.1662
     30 C         141.1153  141.1366  171.0796 C.3     1  UNL1        0.0472
     31 C         138.9255  140.3427  169.9287 C.3     1  UNL1        0.0472
@<TRIPOS>UNITY_ATOM_ATTR
19 1
charge -1
@<TRIPOS>BOND
     1     6     7    1
     2     7     8   ar
     3     8     9   ar
     4     9    10   ar
     5    10    11   ar
     6    11     1    1
     7     1     2   ar
     8     2     3   ar
     9     3     4   ar
    10     4    21    1
    11    21    22   ar
    12    22    23   ar
    13    23    24   ar
    14    24    28    1
    15    28    29    1
    16    29    30    1
    17    29    31    1
    18    24    25   ar
    19    25    26    1
    20    25    27   ar
    21     4     5   ar
    22     9    12    1
    23    12    13    1
    24    13    14    1
    25    14    16    1
    26    16    17    1
    27    17    18    1
    28    18    19   ar
    29    18    20   ar
    30    14    15    1
    31    11     7   ar
    32     5     1   ar
    33    15     8    1
    34    27    21   ar
@<TRIPOS>MOLECULE
*****
 31 34 0 0 0
SMALL
GASTEIGER

@<TRIPOS>ATOM
      1 C         139.9883  142.0901  162.2552 C.ar    1  UNL1        0.2168
      2 N         138.6359  141.7091  161.7299 N.ar    1  UNL1       -0.1210
      3 N         138.4616  142.3543  160.3870 N.ar    1  UNL1       -0.1393
      4 C         139.7062  143.1341  160.0823 C.ar    1  UNL1        0.1351
      5 S         140.6498  142.9708  161.2369 S.2     1  UNL1       -0.0262
      6 C         140.3111  143.9626  164.9083 C.3     1  UNL1        0.0520
      7 C         140.7245  142.5257  164.7876 C.ar    1  UNL1        0.0615
      8 C         141.3587  141.6973  165.8653 C.ar    1  UNL1        0.0228
      9 C         141.6023  140.3246  165.3119 C.ar    1  UNL1        0.0789
     10 N         141.1186  140.3047  163.8921 N.ar    1  UNL1       -0.1683
     11 N         140.5761  141.6650  163.5681 N.ar    1  UNL1       -0.2100
     12 C         142.2331  139.2701  166.1722 C.3     1  UNL1        0.0647
     13 C         142.6203  139.5884  167.5859 C.3     1  UNL1        0.0788
     14 N         142.3767  140.9611  168.1394 N.3     1  UNL1       -0.2682
     15 C         141.7459  142.0155  167.2791 C.3     1  UNL1        0.1016
     16 C         142.7639  141.2793  169.5532 C.3     1  UNL1        0.0783
     17 C         142.1815  140.4880  170.6866 C.3     1  UNL1        0.0590
     18 C         140.8010  140.7969  171.1855 C.2     1  UNL1        0.0517
     19 O         139.7012  139.7903  171.0206 O.co2   1  UNL1       -0.5491
     20 O         140.5203  142.1124  171.8493 O.co2   1  UNL1       -0.5491
     21 C         139.9623  143.9363  158.8410 C.ar    1  UNL1        0.0267
     22 C         140.9483  145.0664  158.8684 C.ar    1  UNL1        0.0052
     23 C         141.2043  145.8685  157.6271 C.ar    1  UNL1        0.0378
     24 C         140.4745  145.5406  156.3584 C.ar    1  UNL1        0.1488
     25 C         139.4886  144.4105  156.3309 C.ar    1  UNL1        0.0916
     26 CL        138.7587  144.0825  155.0621 Cl      1  UNL1       -0.0791
     27 C         139.2325  143.6083  157.5722 C.ar    1  UNL1        0.0165
     28 O         140.7306  146.3428  155.1170 O.3     1  UNL1       -0.4783
     29 C         139.9568  147.6030  154.8654 C.3     1  UNL1        0.1662
     30 C         138.8492  148.0012  155.7952 C.3     1  UNL1        0.0472
     31 C         140.2906  148.4649  153.6841 C.3     1  UNL1        0.0472
@<TRIPOS>UNITY_ATOM_ATTR
19 1
charge -1
@<TRIPOS>BOND
     1     6     7    1
     2     7     8   ar
     3     8     9   ar
     4     9    10   ar
     5    10    11   ar
     6    11     1    1
     7     1     2   ar
     8     2     3   ar
     9     3     4   ar
    10     4    21    1
    11    21    22   ar
    12    22    23   ar
    13    23    24   ar
    14    24    28    1
    15    28    29    1
    16    29    30    1
    17    29    31    1
    18    24    25   ar
    19    25    26    1
    20    25    27   ar
    21     4     5   ar
    22     9    12    1
    23    12    13    1
    24    13    14    1
    25    14    16    1
    26    16    17    1
    27    17    18    1
    28    18    19   ar
    29    18    20   ar
    30    14    15    1
    31    11     7   ar
    32     5     1   ar
    33    15     8    1
    34    27    21   ar
@<TRIPOS>MOLECULE
*****
 31 34 0 0 0
SMALL
GASTEIGER

@<TRIPOS>ATOM
      1 C         142.3895  139.2147  161.9575 C.ar    1  UNL1        0.2168
      2 N         143.0382  137.9765  161.4136 N.ar    1  UNL1       -0.1210
      3 N         143.7063  138.3336  160.1189 N.ar    1  UNL1       -0.1393
      4 C         143.4706  139.7926  159.8627 C.ar    1  UNL1        0.1351
      5 S         142.6568  140.3372  160.9991 S.2     1  UNL1       -0.0262
      6 C         143.5296  140.2865  164.8213 C.3     1  UNL1        0.0520
      7 C         142.1345  139.8059  164.5519 C.ar    1  UNL1        0.0615
      8 C         141.0185  139.7336  165.5515 C.ar    1  UNL1        0.0228
      9 C         139.8047  139.1962  164.8530 C.ar    1  UNL1        0.0789
     10 N         140.1705  138.9365  163.4217 N.ar    1  UNL1       -0.1683
     11 N         141.6105  139.3133  163.2356 N.ar    1  UNL1       -0.2100
     12 C         138.5231  139.0129  165.6105 C.3     1  UNL1        0.0647
     13 C         138.4553  139.3669  167.0665 C.3     1  UNL1        0.0788
     14 N         139.6691  139.9042  167.7650 N.3     1  UNL1       -0.2682
     15 C         140.9507  140.0876  167.0075 C.3     1  UNL1        0.1016
     16 C         139.6013  140.2582  169.2211 C.3     1  UNL1        0.0783
     17 C         140.6710  141.1110  169.8363 C.3     1  UNL1        0.0590
     18 C         140.2954  142.2981  170.6728 C.2     1  UNL1        0.0517
     19 O         140.3399  142.2053  172.1693 O.co2   1  UNL1       -0.5491
     20 O         139.8752  143.5779  170.0129 O.co2   1  UNL1       -0.5491
     21 C         143.9623  140.5705  158.6782 C.ar    1  UNL1        0.0267
     22 C         144.3566  142.0091  158.8369 C.ar    1  UNL1        0.0052
     23 C         144.8483  142.7869  157.6524 C.ar    1  UNL1        0.0378
     24 C         144.9457  142.1263  156.3092 C.ar    1  UNL1        0.1488
     25 C         144.5514  140.6878  156.1506 C.ar    1  UNL1        0.0916
     26 CL        144.6488  140.0271  154.8074 Cl      1  UNL1       -0.0791
     27 C         144.0597  139.9099  157.3351 C.ar    1  UNL1        0.0165
     28 O         145.4374  142.9042  155.1246 O.3     1  UNL1       -0.4783
     29 C         146.9097  143.0188  154.8613 C.3     1  UNL1        0.1662
     30 C         147.4151  143.9921  153.8380 C.3     1  UNL1        0.0472
     31 C         147.8766  142.1600  155.6214 C.3     1  UNL1        0.0472
@<TRIPOS>UNITY_ATOM_ATTR
19 1
charge -1
@<TRIPOS>BOND
     1     6     7    1
     2     7     8   ar
     3     8     9   ar
     4     9    10   ar
     5    10    11   ar
     6    11     1    1
     7     1     2   ar
     8     2     3   ar
     9     3     4   ar
    10     4    21    1
    11    21    22   ar
    12    22    23   ar
    13    23    24   ar
    14    24    28    1
    15    28    29    1
    16    29    30    1
    17    29    31    1
    18    24    25   ar
    19    25    26    1
    20    25    27   ar
    21     4     5   ar
    22     9    12    1
    23    12    13    1
    24    13    14    1
    25    14    16    1
    26    16    17    1
    27    17    18    1
    28    18    19   ar
    29    18    20   ar
    30    14    15    1
    31    11     7   ar
    32     5     1   ar
    33    15     8    1
    34    27    21   ar
@<TRIPOS>MOLECULE
*****
 31 34 0 0 0
SMALL
GASTEIGER

@<TRIPOS>ATOM
      1 C         140.3848  138.9174  161.6871 C.ar    1  UNL1        0.2168
      2 N         140.6766  137.4694  161.9481 N.ar    1  UNL1       -0.1210
      3 N         141.0607  137.3267  163.3910 N.ar    1  UNL1       -0.1393
      4 C         141.0064  138.6865  164.0218 C.ar    1  UNL1        0.1351
      5 S         140.5886  139.6696  162.9687 S.2     1  UNL1       -0.0262
      6 C         137.3292  139.6511  160.8069 C.3     1  UNL1        0.0520
      7 C         138.5587  139.8466  159.9703 C.ar    1  UNL1        0.0615
      8 C         138.5996  140.4136  158.5822 C.ar    1  UNL1        0.0228
      9 C         140.0294  140.4268  158.1288 C.ar    1  UNL1        0.0789
     10 N         140.8721  139.8680  159.2368 N.ar    1  UNL1       -0.1683
     11 N         139.9632  139.5093  160.3748 N.ar    1  UNL1       -0.2100
     12 C         140.3792  140.9460  156.7658 C.3     1  UNL1        0.0647
     13 C         139.2992  141.4520  155.8561 C.3     1  UNL1        0.0788
     14 N         137.8695  141.4388  156.3094 N.3     1  UNL1       -0.2682
     15 C         137.5196  140.9196  157.6725 C.3     1  UNL1        0.1016
     16 C         136.7895  141.9448  155.3996 C.3     1  UNL1        0.0783
     17 C         135.4055  141.3731  155.4879 C.3     1  UNL1        0.0590
     18 C         135.1180  140.0139  154.9222 C.2     1  UNL1        0.0517
     19 O         135.5437  139.6782  153.5236 O.co2   1  UNL1       -0.5491
     20 O         134.4048  138.9904  155.7551 O.co2   1  UNL1       -0.5491
     21 C         141.3154  139.0069  165.4542 C.ar    1  UNL1        0.0267
     22 C         142.6792  138.7206  166.0094 C.ar    1  UNL1        0.0052
     23 C         142.9882  139.0411  167.4418 C.ar    1  UNL1        0.0378
     24 C         141.9335  139.6479  168.3190 C.ar    1  UNL1        0.1488
     25 C         140.5699  139.9341  167.7638 C.ar    1  UNL1        0.0916
     26 CL        139.5151  140.5409  168.6410 Cl      1  UNL1       -0.0791
     27 C         140.2608  139.6137  166.3314 C.ar    1  UNL1        0.0165
     28 O         142.2426  139.9683  169.7514 O.3     1  UNL1       -0.4783
     29 C         142.4818  141.3896  170.1672 C.3     1  UNL1        0.1662
     30 C         143.5758  142.1863  169.5204 C.3     1  UNL1        0.0472
     31 C         141.6270  142.0141  171.2299 C.3     1  UNL1        0.0472
@<TRIPOS>UNITY_ATOM_ATTR
19 1
charge -1
@<TRIPOS>BOND
     1     6     7    1
     2     7     8   ar
     3     8     9   ar
     4     9    10   ar
     5    10    11   ar
     6    11     1    1
     7     1     2   ar
     8     2     3   ar
     9     3     4   ar
    10     4    21    1
    11    21    22   ar
    12    22    23   ar
    13    23    24   ar
    14    24    28    1
    15    28    29    1
    16    29    30    1
    17    29    31    1
    18    24    25   ar
    19    25    26    1
    20    25    27   ar
    21     4     5   ar
    22     9    12    1
    23    12    13    1
    24    13    14    1
    25    14    16    1
    26    16    17    1
    27    17    18    1
    28    18    19   ar
    29    18    20   ar
    30    14    15    1
    31    11     7   ar
    32     5     1   ar
    33    15     8    1
    34    27    21   ar
@<TRIPOS>MOLECULE
*****
 31 34 0 0 0
SMALL
GASTEIGER

@<TRIPOS>ATOM
      1 C         139.7991  138.5938  162.1556 C.ar    1  UNL1        0.2168
      2 N         138.8994  137.6147  162.8498 N.ar    1  UNL1       -0.1210
      3 N         139.1053  137.7635  164.3282 N.ar    1  UNL1       -0.1393
      4 C         140.1323  138.8346  164.5476 C.ar    1  UNL1        0.1351
      5 S         140.5611  139.3477  163.2049 S.2     1  UNL1       -0.0262
      6 C         137.5416  139.9214  160.2086 C.3     1  UNL1        0.0520
      7 C         138.8786  139.3956  159.7776 C.ar    1  UNL1        0.0615
      8 C         139.4127  139.3877  158.3759 C.ar    1  UNL1        0.0228
      9 C         140.7805  138.7726  158.4045 C.ar    1  UNL1        0.0789
     10 N         141.0917  138.4004  159.8239 N.ar    1  UNL1       -0.1683
     11 N         139.9163  138.7854  160.6725 N.ar    1  UNL1       -0.2100
     12 C         141.5659  138.6309  157.1345 C.3     1  UNL1        0.0647
     13 C         140.9835  139.1043  155.8358 C.3     1  UNL1        0.0788
     14 N         139.6157  139.7194  155.8072 N.3     1  UNL1       -0.2682
     15 C         138.8303  139.8611  157.0772 C.3     1  UNL1        0.1016
     16 C         139.0333  140.1929  154.5084 C.3     1  UNL1        0.0783
     17 C         138.3668  139.2165  153.5851 C.3     1  UNL1        0.0590
     18 C         138.1132  137.8091  154.0380 C.2     1  UNL1        0.0517
     19 O         136.8869  137.4889  154.8404 O.co2   1  UNL1       -0.5491
     20 O         139.0858  136.7220  153.6885 O.co2   1  UNL1       -0.5491
     21 C         140.6411  139.3092  165.8765 C.ar    1  UNL1        0.0267
     22 C         142.1175  139.3820  166.1318 C.ar    1  UNL1        0.0052
     23 C         142.6262  139.8566  167.4606 C.ar    1  UNL1        0.0378
     24 C         141.6587  140.2584  168.5341 C.ar    1  UNL1        0.1488
     25 C         140.1825  140.1856  168.2788 C.ar    1  UNL1        0.0916
     26 CL        139.2149  140.5874  169.3524 Cl      1  UNL1       -0.0791
     27 C         139.6736  139.7110  166.9500 C.ar    1  UNL1        0.0165
     28 O         142.1676  140.7331  169.8630 O.3     1  UNL1       -0.4783
     29 C         142.6493  142.1448  170.0209 C.3     1  UNL1        0.1662
     30 C         141.6609  143.2593  170.1970 C.3     1  UNL1        0.0472
     31 C         144.1194  142.4421  170.0028 C.3     1  UNL1        0.0472
@<TRIPOS>UNITY_ATOM_ATTR
19 1
charge -1
@<TRIPOS>BOND
     1     6     7    1
     2     7     8   ar
     3     8     9   ar
     4     9    10   ar
     5    10    11   ar
     6    11     1    1
     7     1     2   ar
     8     2     3   ar
     9     3     4   ar
    10     4    21    1
    11    21    22   ar
    12    22    23   ar
    13    23    24   ar
    14    24    28    1
    15    28    29    1
    16    29    30    1
    17    29    31    1
    18    24    25   ar
    19    25    26    1
    20    25    27   ar
    21     4     5   ar
    22     9    12    1
    23    12    13    1
    24    13    14    1
    25    14    16    1
    26    16    17    1
    27    17    18    1
    28    18    19   ar
    29    18    20   ar
    30    14    15    1
    31    11     7   ar
    32     5     1   ar
    33    15     8    1
    34    27    21   ar
@<TRIPOS>MOLECULE
*****
 31 34 0 0 0
SMALL
GASTEIGER

@<TRIPOS>ATOM
      1 C         142.3220  139.3480  161.6205 C.ar    1  UNL1        0.2168
      2 N         143.7409  139.3488  161.1338 N.ar    1  UNL1       -0.1210
      3 N         143.7609  138.7408  159.7626 N.ar    1  UNL1       -0.1393
      4 C         142.3545  138.3641  159.4020 C.ar    1  UNL1        0.1351
      5 S         141.4652  138.7394  160.5502 S.2     1  UNL1       -0.0262
      6 C         141.4107  137.5306  164.1733 C.3     1  UNL1        0.0520
      7 C         141.4251  139.0296  164.1184 C.ar    1  UNL1        0.0615
      8 C         141.0231  139.9563  165.2272 C.ar    1  UNL1        0.0228
      9 C         141.1936  141.3644  164.7392 C.ar    1  UNL1        0.0789
     10 N         141.7009  141.3079  163.3287 N.ar    1  UNL1       -0.1683
     11 N         141.8440  139.8649  162.9450 N.ar    1  UNL1       -0.2100
     12 C         140.8648  142.5161  165.6422 C.3     1  UNL1        0.0647
     13 C         140.3656  142.2598  167.0332 C.3     1  UNL1        0.0788
     14 N         140.1951  140.8517  167.5212 N.3     1  UNL1       -0.2682
     15 C         140.5239  139.6999  166.6182 C.3     1  UNL1        0.1016
     16 C         139.6958  140.5953  168.9123 C.3     1  UNL1        0.0783
     17 C         140.6367  140.6917  170.0765 C.3     1  UNL1        0.0590
     18 C         140.6046  141.8970  170.9690 C.2     1  UNL1        0.0517
     19 O         139.3912  142.7784  170.9955 O.co2   1  UNL1       -0.5491
     20 O         141.7858  142.2207  171.8350 O.co2   1  UNL1       -0.5491
     21 C         141.9145  137.7245  158.1185 C.ar    1  UNL1        0.0267
     22 C         140.5235  137.9521  157.6054 C.ar    1  UNL1        0.0052
     23 C         140.0836  137.3125  156.3220 C.ar    1  UNL1        0.0378
     24 C         141.0347  136.4453  155.5516 C.ar    1  UNL1        0.1488
     25 C         142.4256  136.2178  156.0647 C.ar    1  UNL1        0.0916
     26 CL        143.3768  135.3506  155.2943 Cl      1  UNL1       -0.0791
     27 C         142.8656  136.8574  157.3482 C.ar    1  UNL1        0.0165
     28 O         140.5948  135.8057  154.2680 O.3     1  UNL1       -0.4783
     29 C         140.5678  136.6080  153.0009 C.3     1  UNL1        0.1662
     30 C         139.2607  136.8990  152.3251 C.3     1  UNL1        0.0472
     31 C         141.8480  137.1194  152.4097 C.3     1  UNL1        0.0472
@<TRIPOS>UNITY_ATOM_ATTR
19 1
charge -1
@<TRIPOS>BOND
     1     6     7    1
     2     7     8   ar
     3     8     9   ar
     4     9    10   ar
     5    10    11   ar
     6    11     1    1
     7     1     2   ar
     8     2     3   ar
     9     3     4   ar
    10     4    21    1
    11    21    22   ar
    12    22    23   ar
    13    23    24   ar
    14    24    28    1
    15    28    29    1
    16    29    30    1
    17    29    31    1
    18    24    25   ar
    19    25    26    1
    20    25    27   ar
    21     4     5   ar
    22     9    12    1
    23    12    13    1
    24    13    14    1
    25    14    16    1
    26    16    17    1
    27    17    18    1
    28    18    19   ar
    29    18    20   ar
    30    14    15    1
    31    11     7   ar
    32     5     1   ar
    33    15     8    1
    34    27    21   ar
