@<TRIPOS>MOLECULE
*****
 33 36 0 0 0
SMALL
GASTEIGER

@<TRIPOS>ATOM
      1 N         138.9265  139.2102  161.8529 N.3     1  UNL1       -0.2682
      2 C         140.3775  139.4065  161.5275 C.3     1  UNL1        0.1035
      3 C         140.7998  140.5351  160.6343 C.3     1  UNL1        0.1470
      4 C         141.2221  141.6639  159.7412 C.3     1  UNL1        0.1035
      5 N         140.1933  142.5963  159.1735 N.3     1  UNL1       -0.2673
      6 C         138.7422  142.3999  159.4990 C.3     1  UNL1        0.1035
      7 C         138.3200  141.2713  160.3921 C.3     1  UNL1        0.1470
      8 C         137.8977  140.1426  161.2852 C.3     1  UNL1        0.1035
      9 O         139.7710  141.4675  160.0667 O.3     1  UNL1       -0.3530
     10 C         138.5042  138.0814  162.7461 C.3     1  UNL1        0.0769
     11 C         139.4043  137.6265  163.8564 C.3     1  UNL1        0.0437
     12 C         139.4258  139.8284  167.7808 C.ar    1  UNL1        0.0684
     13 C         138.2015  139.0770  167.3491 C.ar    1  UNL1        0.0100
     14 C         138.1943  138.3430  166.0410 C.ar    1  UNL1       -0.0035
     15 C         139.4114  138.3605  165.1646 C.ar    1  UNL1       -0.0207
     16 C         140.6358  139.1119  165.5962 C.ar    1  UNL1       -0.0035
     17 C         140.6430  139.8459  166.9044 C.ar    1  UNL1        0.0100
     18 N         139.4401  141.2963  170.3971 N.1     1  UNL1       -0.1908
     19 C         139.4330  140.5624  169.0890 C.1     1  UNL1        0.1004
     20 C         140.6156  143.7250  158.2804 C.3     1  UNL1        0.0913
     21 C         140.5306  145.1405  158.7694 C.3     1  UNL1        0.1087
     22 N         141.3716  145.5851  159.9292 N.3     1  UNL1       -0.1780
     23 H         141.3063  146.6022  159.9675 H       1  UNL1        0.1488
     24 S         141.0728  145.0797  161.3095 S.O2    1  UNL1        0.0603
     25 O         139.6616  145.5725  161.1845 O.2     1  UNL1       -0.1530
     26 O         142.4840  144.5869  161.4345 O.2     1  UNL1       -0.1530
     27 C         140.7741  144.5743  162.6899 C.ar    1  UNL1        0.1221
     28 C         141.6653  143.5462  163.3213 C.ar    1  UNL1        0.0222
     29 C         141.3667  143.0408  164.7016 C.ar    1  UNL1        0.0310
     30 C         140.1767  143.5635  165.4505 C.ar    1  UNL1        0.1402
     31 F         139.8780  143.0580  166.8309 F       1  UNL1       -0.2042
     32 C         139.2855  144.5915  164.8191 C.ar    1  UNL1        0.0310
     33 C         139.5842  145.0970  163.4388 C.ar    1  UNL1        0.0222
@<TRIPOS>BOND
     1    18    19    3
     2    19    12    1
     3    12    13   ar
     4    13    14   ar
     5    14    15   ar
     6    15    11    1
     7    11    10    1
     8    10     1    1
     9     1     2    1
    10     2     3    1
    11     3     4    1
    12     4     5    1
    13     5    20    1
    14    20    21    1
    15    21    22    1
    16    22    24    1
    17    24    25    2
    18    24    26    2
    19    24    27    1
    20    27    28   ar
    21    28    29   ar
    22    29    30   ar
    23    30    31    1
    24    30    32   ar
    25    32    33   ar
    26     5     6    1
    27     6     7    1
    28     7     8    1
    29     7     9    1
    30    15    16   ar
    31    16    17   ar
    32    17    12   ar
    33     8     1    1
    34     9     3    1
    35    33    27   ar
    36    22    23    1
@<TRIPOS>MOLECULE
*****
 33 36 0 0 0
SMALL
GASTEIGER

@<TRIPOS>ATOM
      1 N         143.7578  139.8041  164.0747 N.3     1  UNL1       -0.2682
      2 C         144.8920  140.7052  163.6852 C.3     1  UNL1        0.1035
      3 C         144.8020  141.5254  162.4326 C.3     1  UNL1        0.1470
      4 C         144.7121  142.3457  161.1799 C.3     1  UNL1        0.1035
      5 N         143.4879  142.2649  160.3168 N.3     1  UNL1       -0.2673
      6 C         142.3538  141.3638  160.7064 C.3     1  UNL1        0.1035
      7 C         142.4437  140.5436  161.9590 C.3     1  UNL1        0.1470
      8 C         142.5337  139.7233  163.2116 C.3     1  UNL1        0.1035
      9 O         143.5779  141.4446  161.5695 O.3     1  UNL1       -0.3530
     10 C         143.8478  138.9838  165.3274 C.3     1  UNL1        0.0769
     11 C         142.6412  138.8167  166.2027 C.3     1  UNL1        0.0437
     12 C         141.1137  142.2938  168.6165 C.ar    1  UNL1        0.0684
     13 C         140.5883  142.0533  167.2323 C.ar    1  UNL1        0.0100
     14 C         141.0974  140.8943  166.4277 C.ar    1  UNL1       -0.0035
     15 C         142.1320  139.9758  167.0073 C.ar    1  UNL1       -0.0207
     16 C         142.6574  140.2163  168.3916 C.ar    1  UNL1       -0.0035
     17 C         142.1482  141.3753  169.1962 C.ar    1  UNL1        0.0100
     18 N         140.0953  144.6118  170.2258 N.1     1  UNL1       -0.1908
     19 C         140.6044  143.4528  169.4212 C.1     1  UNL1        0.1004
     20 C         143.3980  143.0852  159.0642 C.3     1  UNL1        0.0913
     21 C         142.2442  144.0224  158.8627 C.3     1  UNL1        0.1087
     22 N         141.9731  145.1046  159.8653 N.3     1  UNL1       -0.1780
     23 H         141.6352  145.9125  159.3424 H       1  UNL1        0.1488
     24 S         140.9948  144.8685  160.9775 S.O2    1  UNL1        0.0603
     25 O         142.1296  144.7571  161.9521 O.2     1  UNL1       -0.1530
     26 O         139.8600  144.9799  160.0030 O.2     1  UNL1       -0.1530
     27 C         140.0164  144.6324  162.0898 C.ar    1  UNL1        0.1221
     28 C         138.7303  143.9103  161.8166 C.ar    1  UNL1        0.0222
     29 C         137.7519  143.6742  162.9288 C.ar    1  UNL1        0.0310
     30 C         138.0595  144.1603  164.3141 C.ar    1  UNL1        0.1402
     31 F         137.0811  143.9242  165.4263 F       1  UNL1       -0.2042
     32 C         139.3456  144.8824  164.5872 C.ar    1  UNL1        0.0310
     33 C         140.3240  145.1185  163.4751 C.ar    1  UNL1        0.0222
@<TRIPOS>BOND
     1    18    19    3
     2    19    12    1
     3    12    13   ar
     4    13    14   ar
     5    14    15   ar
     6    15    11    1
     7    11    10    1
     8    10     1    1
     9     1     2    1
    10     2     3    1
    11     3     4    1
    12     4     5    1
    13     5    20    1
    14    20    21    1
    15    21    22    1
    16    22    24    1
    17    24    25    2
    18    24    26    2
    19    24    27    1
    20    27    28   ar
    21    28    29   ar
    22    29    30   ar
    23    30    31    1
    24    30    32   ar
    25    32    33   ar
    26     5     6    1
    27     6     7    1
    28     7     8    1
    29     7     9    1
    30    15    16   ar
    31    16    17   ar
    32    17    12   ar
    33     8     1    1
    34     9     3    1
    35    33    27   ar
    36    22    23    1
@<TRIPOS>MOLECULE
*****
 33 36 0 0 0
SMALL
GASTEIGER

@<TRIPOS>ATOM
      1 N         138.5114  140.4328  165.4977 N.3     1  UNL1       -0.2682
      2 C         137.7254  140.8878  164.3040 C.3     1  UNL1        0.1035
      3 C         138.1007  142.1571  163.5983 C.3     1  UNL1        0.1470
      4 C         138.4759  143.4265  162.8925 C.3     1  UNL1        0.1035
      5 N         139.6373  144.2408  163.3806 N.3     1  UNL1       -0.2673
      6 C         140.4233  143.7857  164.5744 C.3     1  UNL1        0.1035
      7 C         140.0481  142.5164  165.2801 C.3     1  UNL1        0.1470
      8 C         139.6728  141.2471  165.9857 C.3     1  UNL1        0.1035
      9 O         139.2620  142.9714  164.0863 O.3     1  UNL1       -0.3530
     10 C         138.1362  139.1635  166.2034 C.3     1  UNL1        0.0769
     11 C         138.6159  137.8431  165.6777 C.3     1  UNL1        0.0437
     12 C         141.4076  137.7054  162.1511 C.ar    1  UNL1        0.0684
     13 C         141.9600  137.6975  163.5457 C.ar    1  UNL1        0.0100
     14 C         141.0294  137.7434  164.7212 C.ar    1  UNL1       -0.0035
     15 C         139.5465  137.7972  164.5022 C.ar    1  UNL1       -0.0207
     16 C         138.9942  137.8051  163.1076 C.ar    1  UNL1       -0.0035
     17 C         139.9247  137.7592  161.9321 C.ar    1  UNL1        0.0100
     18 N         143.2689  137.6136  159.8001 N.1     1  UNL1       -0.1908
     19 C         142.3383  137.6595  160.9756 C.1     1  UNL1        0.1004
     20 C         140.0125  145.5101  162.6749 C.3     1  UNL1        0.0913
     21 C         140.5620  145.4585  161.2801 C.3     1  UNL1        0.1087
     22 N         142.0302  145.2442  161.0598 N.3     1  UNL1       -0.1780
     23 H         142.5024  146.0898  161.3797 H       1  UNL1        0.1488
     24 S         142.7254  144.0866  161.7129 S.O2    1  UNL1        0.0603
     25 O         143.5374  145.0400  162.5385 O.2     1  UNL1       -0.1530
     26 O         141.9135  143.1332  160.8872 O.2     1  UNL1       -0.1530
     27 C         143.4207  142.9289  162.3659 C.ar    1  UNL1        0.1221
     28 C         144.1248  143.1193  163.6766 C.ar    1  UNL1        0.0222
     29 C         144.8201  141.9617  164.3296 C.ar    1  UNL1        0.0310
     30 C         144.8111  140.6136  163.6720 C.ar    1  UNL1        0.1402
     31 F         145.5064  139.4559  164.3250 F       1  UNL1       -0.2042
     32 C         144.1070  140.4232  162.3613 C.ar    1  UNL1        0.0310
     33 C         143.4118  141.5808  161.7083 C.ar    1  UNL1        0.0222
@<TRIPOS>BOND
     1    18    19    3
     2    19    12    1
     3    12    13   ar
     4    13    14   ar
     5    14    15   ar
     6    15    11    1
     7    11    10    1
     8    10     1    1
     9     1     2    1
    10     2     3    1
    11     3     4    1
    12     4     5    1
    13     5    20    1
    14    20    21    1
    15    21    22    1
    16    22    24    1
    17    24    25    2
    18    24    26    2
    19    24    27    1
    20    27    28   ar
    21    28    29   ar
    22    29    30   ar
    23    30    31    1
    24    30    32   ar
    25    32    33   ar
    26     5     6    1
    27     6     7    1
    28     7     8    1
    29     7     9    1
    30    15    16   ar
    31    16    17   ar
    32    17    12   ar
    33     8     1    1
    34     9     3    1
    35    33    27   ar
    36    22    23    1
@<TRIPOS>MOLECULE
*****
 33 36 0 0 0
SMALL
GASTEIGER

@<TRIPOS>ATOM
      1 N         138.8026  139.0886  162.2364 N.3     1  UNL1       -0.2682
      2 C         139.7984  139.1126  161.1149 C.3     1  UNL1        0.1035
      3 C         140.0695  140.3917  160.3799 C.3     1  UNL1        0.1470
      4 C         140.3406  141.6709  159.6448 C.3     1  UNL1        0.1035
      5 N         139.6159  142.9261  160.0313 N.3     1  UNL1       -0.2673
      6 C         138.6201  142.9021  161.1529 C.3     1  UNL1        0.1035
      7 C         138.3490  141.6229  161.8879 C.3     1  UNL1        0.1470
      8 C         138.0779  140.3438  162.6229 C.3     1  UNL1        0.1035
      9 O         139.3448  141.6469  160.7664 O.3     1  UNL1       -0.3530
     10 C         138.5315  137.8094  162.9715 C.3     1  UNL1        0.0769
     11 C         139.4013  137.4090  164.1260 C.3     1  UNL1        0.0437
     12 C         139.3875  139.8499  167.9064 C.ar    1  UNL1        0.0684
     13 C         140.6229  139.7885  167.0578 C.ar    1  UNL1        0.0100
     14 C         140.6275  138.9749  165.7977 C.ar    1  UNL1       -0.0035
     15 C         139.3968  138.2227  165.3861 C.ar    1  UNL1       -0.0207
     16 C         138.1614  138.2841  166.2347 C.ar    1  UNL1       -0.0035
     17 C         138.1567  139.0977  167.4948 C.ar    1  UNL1        0.0100
     18 N         139.3783  141.4773  170.4266 N.1     1  UNL1       -0.1908
     19 C         139.3829  140.6636  169.1666 C.1     1  UNL1        0.1004
     20 C         139.8870  144.2052  159.2963 C.3     1  UNL1        0.0913
     21 C         140.3544  145.4170  160.0469 C.3     1  UNL1        0.1087
     22 N         141.7389  145.4546  160.6229 N.3     1  UNL1       -0.1780
     23 H         141.9717  146.4373  160.7659 H       1  UNL1        0.1488
     24 S         142.0342  144.7475  161.9123 S.O2    1  UNL1        0.0603
     25 O         143.1488  143.9972  161.2456 O.2     1  UNL1       -0.1530
     26 O         140.9196  145.4978  162.5790 O.2     1  UNL1       -0.1530
     27 C         142.3295  144.0404  163.2019 C.ar    1  UNL1        0.1221
     28 C         141.2119  143.4343  163.9979 C.ar    1  UNL1        0.0222
     29 C         141.5071  142.7272  165.2873 C.ar    1  UNL1        0.0310
     30 C         142.9199  142.6262  165.7808 C.ar    1  UNL1        0.1402
     31 F         143.2152  141.9191  167.0704 F       1  UNL1       -0.2042
     32 C         144.0376  143.2322  164.9848 C.ar    1  UNL1        0.0310
     33 C         143.7424  143.9393  163.6953 C.ar    1  UNL1        0.0222
@<TRIPOS>BOND
     1    18    19    3
     2    19    12    1
     3    12    13   ar
     4    13    14   ar
     5    14    15   ar
     6    15    11    1
     7    11    10    1
     8    10     1    1
     9     1     2    1
    10     2     3    1
    11     3     4    1
    12     4     5    1
    13     5    20    1
    14    20    21    1
    15    21    22    1
    16    22    24    1
    17    24    25    2
    18    24    26    2
    19    24    27    1
    20    27    28   ar
    21    28    29   ar
    22    29    30   ar
    23    30    31    1
    24    30    32   ar
    25    32    33   ar
    26     5     6    1
    27     6     7    1
    28     7     8    1
    29     7     9    1
    30    15    16   ar
    31    16    17   ar
    32    17    12   ar
    33     8     1    1
    34     9     3    1
    35    33    27   ar
    36    22    23    1
@<TRIPOS>MOLECULE
*****
 33 36 0 0 0
SMALL
GASTEIGER

@<TRIPOS>ATOM
      1 N         138.4017  140.5707  164.5443 N.3     1  UNL1       -0.2682
      2 C         138.3630  142.0459  164.8129 C.3     1  UNL1        0.1035
      3 C         138.7688  143.0142  163.7416 C.3     1  UNL1        0.1470
      4 C         139.1746  143.9826  162.6703 C.3     1  UNL1        0.1035
      5 N         139.6192  143.4757  161.3304 N.3     1  UNL1       -0.2673
      6 C         139.6579  142.0004  161.0618 C.3     1  UNL1        0.1035
      7 C         139.2521  141.0321  162.1331 C.3     1  UNL1        0.1470
      8 C         138.8463  140.0638  163.2043 C.3     1  UNL1        0.1035
      9 O         139.2133  142.5073  162.4017 O.3     1  UNL1       -0.3530
     10 C         137.9959  139.6023  165.6156 C.3     1  UNL1        0.0769
     11 C         139.0430  138.9112  166.4377 C.3     1  UNL1        0.0437
     12 C         142.2774  141.3132  168.4424 C.ar    1  UNL1        0.0684
     13 C         142.5543  140.6220  167.1402 C.ar    1  UNL1        0.0100
     14 C         141.4762  139.8213  166.4720 C.ar    1  UNL1       -0.0035
     15 C         140.1212  139.7119  167.1059 C.ar    1  UNL1       -0.0207
     16 C         139.8443  140.4031  168.4081 C.ar    1  UNL1       -0.0035
     17 C         140.9224  141.2037  169.0763 C.ar    1  UNL1        0.0100
     18 N         144.4338  142.9144  169.7788 N.1     1  UNL1       -0.1908
     19 C         143.3556  142.1138  169.1106 C.1     1  UNL1        0.1004
     20 C         140.0250  144.4439  160.2591 C.3     1  UNL1        0.0913
     21 C         141.4782  144.7150  160.0044 C.3     1  UNL1        0.1087
     22 N         142.4134  144.9343  161.1565 N.3     1  UNL1       -0.1780
     23 H         141.8985  145.4691  161.8560 H       1  UNL1        0.1488
     24 S         143.0163  143.7591  161.8673 S.O2    1  UNL1        0.0603
     25 O         143.4109  143.1638  160.5483 O.2     1  UNL1       -0.1530
     26 O         142.6218  144.3545  163.1863 O.2     1  UNL1       -0.1530
     27 C         143.6193  142.5839  162.5782 C.ar    1  UNL1        0.1221
     28 C         144.9933  142.6898  163.1704 C.ar    1  UNL1        0.0222
     29 C         145.5963  141.5146  163.8812 C.ar    1  UNL1        0.0310
     30 C         144.8252  140.2335  163.9999 C.ar    1  UNL1        0.1402
     31 F         145.4281  139.0583  164.7108 F       1  UNL1       -0.2042
     32 C         143.4511  140.1276  163.4077 C.ar    1  UNL1        0.0310
     33 C         142.8481  141.3028  162.6969 C.ar    1  UNL1        0.0222
@<TRIPOS>BOND
     1    18    19    3
     2    19    12    1
     3    12    13   ar
     4    13    14   ar
     5    14    15   ar
     6    15    11    1
     7    11    10    1
     8    10     1    1
     9     1     2    1
    10     2     3    1
    11     3     4    1
    12     4     5    1
    13     5    20    1
    14    20    21    1
    15    21    22    1
    16    22    24    1
    17    24    25    2
    18    24    26    2
    19    24    27    1
    20    27    28   ar
    21    28    29   ar
    22    29    30   ar
    23    30    31    1
    24    30    32   ar
    25    32    33   ar
    26     5     6    1
    27     6     7    1
    28     7     8    1
    29     7     9    1
    30    15    16   ar
    31    16    17   ar
    32    17    12   ar
    33     8     1    1
    34     9     3    1
    35    33    27   ar
    36    22    23    1
@<TRIPOS>MOLECULE
*****
 33 36 0 0 0
SMALL
GASTEIGER

@<TRIPOS>ATOM
      1 N         144.7555  142.3130  163.4085 N.3     1  UNL1       -0.2682
      2 C         144.3662  142.3574  161.9606 C.3     1  UNL1        0.1035
      3 C         143.2478  143.2506  161.5118 C.3     1  UNL1        0.1470
      4 C         142.1293  144.1437  161.0630 C.3     1  UNL1        0.1035
      5 N         141.4002  144.9924  162.0621 N.3     1  UNL1       -0.2673
      6 C         141.7895  144.9479  163.5100 C.3     1  UNL1        0.1035
      7 C         142.9080  144.0547  163.9588 C.3     1  UNL1        0.1470
      8 C         144.0264  143.1616  164.4076 C.3     1  UNL1        0.1035
      9 O         142.5187  144.0992  162.5109 O.3     1  UNL1       -0.3530
     10 C         145.8739  141.4198  163.8574 C.3     1  UNL1        0.0769
     11 C         145.5881  140.0021  164.2551 C.3     1  UNL1        0.0437
     12 C         141.4520  138.3086  163.7310 C.ar    1  UNL1        0.0684
     13 C         141.8676  138.8764  165.0557 C.ar    1  UNL1        0.0100
     14 C         143.2463  139.4408  165.2304 C.ar    1  UNL1       -0.0035
     15 C         144.2093  139.4376  164.0804 C.ar    1  UNL1       -0.0207
     16 C         143.7937  138.8698  162.7557 C.ar    1  UNL1       -0.0035
     17 C         142.4150  138.3053  162.5810 C.ar    1  UNL1        0.0100
     18 N         138.6946  137.1795  163.3816 N.1     1  UNL1       -0.1908
     19 C         140.0732  137.7441  163.5563 C.1     1  UNL1        0.1004
     20 C         140.2818  145.8855  161.6133 C.3     1  UNL1        0.0913
     21 C         138.9643  145.8555  162.3299 C.3     1  UNL1        0.1087
     22 N         138.1720  144.5833  162.3899 N.3     1  UNL1       -0.1780
     23 H         138.2943  144.1175  161.4908 H       1  UNL1        0.1488
     24 S         138.4690  143.5640  163.4496 S.O2    1  UNL1        0.0603
     25 O         138.9920  142.6270  162.4016 O.2     1  UNL1       -0.1530
     26 O         137.9460  144.5011  164.4975 O.2     1  UNL1       -0.1530
     27 C         138.7660  142.5448  164.5093 C.ar    1  UNL1        0.1221
     28 C         138.0931  141.2047  164.4706 C.ar    1  UNL1        0.0222
     29 C         138.3901  140.1855  165.5303 C.ar    1  UNL1        0.0310
     30 C         139.3600  140.5063  166.6286 C.ar    1  UNL1        0.1402
     31 F         139.6570  139.4870  167.6883 F       1  UNL1       -0.2042
     32 C         140.0329  141.8463  166.6673 C.ar    1  UNL1        0.0310
     33 C         139.7359  142.8656  165.6076 C.ar    1  UNL1        0.0222
@<TRIPOS>BOND
     1    18    19    3
     2    19    12    1
     3    12    13   ar
     4    13    14   ar
     5    14    15   ar
     6    15    11    1
     7    11    10    1
     8    10     1    1
     9     1     2    1
    10     2     3    1
    11     3     4    1
    12     4     5    1
    13     5    20    1
    14    20    21    1
    15    21    22    1
    16    22    24    1
    17    24    25    2
    18    24    26    2
    19    24    27    1
    20    27    28   ar
    21    28    29   ar
    22    29    30   ar
    23    30    31    1
    24    30    32   ar
    25    32    33   ar
    26     5     6    1
    27     6     7    1
    28     7     8    1
    29     7     9    1
    30    15    16   ar
    31    16    17   ar
    32    17    12   ar
    33     8     1    1
    34     9     3    1
    35    33    27   ar
    36    22    23    1
@<TRIPOS>MOLECULE
*****
 33 36 0 0 0
SMALL
GASTEIGER

@<TRIPOS>ATOM
      1 N         143.1336  139.3807  164.1100 N.3     1  UNL1       -0.2682
      2 C         142.0870  138.4246  163.6198 C.3     1  UNL1        0.1035
      3 C         141.4273  138.6510  162.2918 C.3     1  UNL1        0.1470
      4 C         140.7676  138.8775  160.9638 C.3     1  UNL1        0.1035
      5 N         141.1545  140.0601  160.1261 N.3     1  UNL1       -0.2673
      6 C         142.2011  141.0163  160.6164 C.3     1  UNL1        0.1035
      7 C         142.8608  140.7898  161.9444 C.3     1  UNL1        0.1470
      8 C         143.5205  140.5634  163.2723 C.3     1  UNL1        0.1035
      9 O         141.8142  139.8337  161.4541 O.3     1  UNL1       -0.3530
     10 C         143.7934  139.1543  165.4380 C.3     1  UNL1        0.0769
     11 C         142.9567  138.9306  166.6627 C.3     1  UNL1        0.0437
     12 C         141.1772  142.4413  168.8441 C.ar    1  UNL1        0.0684
     13 C         142.0672  141.4783  169.5726 C.ar    1  UNL1        0.0100
     14 C         142.6603  140.3081  168.8455 C.ar    1  UNL1       -0.0035
     15 C         142.3635  140.1009  167.3899 C.ar    1  UNL1       -0.0207
     16 C         141.4736  141.0638  166.6614 C.ar    1  UNL1       -0.0035
     17 C         140.8804  142.2340  167.3885 C.ar    1  UNL1        0.0100
     18 N         139.9910  144.7818  170.2984 N.1     1  UNL1       -0.1908
     19 C         140.5841  143.6115  169.5713 C.1     1  UNL1        0.1004
     20 C         140.4948  140.2865  158.7982 C.3     1  UNL1        0.0913
     21 C         139.5768  141.4573  158.6067 C.3     1  UNL1        0.1087
     22 N         138.3435  141.5892  159.4502 N.3     1  UNL1       -0.1780
     23 H         138.0263  140.6424  159.6580 H       1  UNL1        0.1488
     24 S         138.4040  142.3223  160.7574 S.O2    1  UNL1        0.0603
     25 O         138.9768  143.5200  160.0593 O.2     1  UNL1       -0.1530
     26 O         137.8311  141.1247  161.4556 O.2     1  UNL1       -0.1530
     27 C         138.4644  143.0554  162.0648 C.ar    1  UNL1        0.1221
     28 C         137.6732  142.5608  163.2392 C.ar    1  UNL1        0.0222
     29 C         137.7336  143.2938  164.5465 C.ar    1  UNL1        0.0310
     30 C         138.5851  144.5215  164.6793 C.ar    1  UNL1        0.1402
     31 F         138.6455  145.2546  165.9866 F       1  UNL1       -0.2042
     32 C         139.3763  145.0161  163.5048 C.ar    1  UNL1        0.0310
     33 C         139.3159  144.2831  162.1975 C.ar    1  UNL1        0.0222
@<TRIPOS>BOND
     1    18    19    3
     2    19    12    1
     3    12    13   ar
     4    13    14   ar
     5    14    15   ar
     6    15    11    1
     7    11    10    1
     8    10     1    1
     9     1     2    1
    10     2     3    1
    11     3     4    1
    12     4     5    1
    13     5    20    1
    14    20    21    1
    15    21    22    1
    16    22    24    1
    17    24    25    2
    18    24    26    2
    19    24    27    1
    20    27    28   ar
    21    28    29   ar
    22    29    30   ar
    23    30    31    1
    24    30    32   ar
    25    32    33   ar
    26     5     6    1
    27     6     7    1
    28     7     8    1
    29     7     9    1
    30    15    16   ar
    31    16    17   ar
    32    17    12   ar
    33     8     1    1
    34     9     3    1
    35    33    27   ar
    36    22    23    1
@<TRIPOS>MOLECULE
*****
 33 36 0 0 0
SMALL
GASTEIGER

@<TRIPOS>ATOM
      1 N         138.2556  139.9610  164.5593 N.3     1  UNL1       -0.2682
      2 C         138.5130  139.0917  163.3643 C.3     1  UNL1        0.1035
      3 C         138.4869  139.6841  161.9865 C.3     1  UNL1        0.1470
      4 C         138.4609  140.2764  160.6086 C.3     1  UNL1        0.1035
      5 N         138.1775  141.7380  160.4258 N.3     1  UNL1       -0.2673
      6 C         137.9202  142.6073  161.6209 C.3     1  UNL1        0.1035
      7 C         137.9463  142.0149  162.9987 C.3     1  UNL1        0.1470
      8 C         137.9723  141.4226  164.3765 C.3     1  UNL1        0.1035
      9 O         138.2036  141.1457  161.8037 O.3     1  UNL1       -0.3530
     10 C         138.2817  139.3687  165.9372 C.3     1  UNL1        0.0769
     11 C         139.5213  139.4732  166.7752 C.3     1  UNL1        0.0437
     12 C         143.4341  140.6199  164.8714 C.ar    1  UNL1        0.0684
     13 C         142.5682  141.6722  165.4981 C.ar    1  UNL1        0.0100
     14 C         141.2639  141.2900  166.1327 C.ar    1  UNL1       -0.0035
     15 C         140.8256  139.8555  166.1406 C.ar    1  UNL1       -0.0207
     16 C         141.6916  138.8032  165.5139 C.ar    1  UNL1       -0.0035
     17 C         142.9959  139.1854  164.8793 C.ar    1  UNL1        0.0100
     18 N         146.0427  141.3844  163.6022 N.1     1  UNL1       -0.1908
     19 C         144.7385  141.0022  164.2367 C.1     1  UNL1        0.1004
     20 C         138.1515  142.3303  159.0480 C.3     1  UNL1        0.0913
     21 C         139.3714  143.0104  158.5008 C.3     1  UNL1        0.1087
     22 N         139.7739  144.3594  159.0187 N.3     1  UNL1       -0.1780
     23 H         138.9134  144.8499  159.2624 H       1  UNL1        0.1488
     24 S         140.6842  144.4658  160.2061 S.O2    1  UNL1        0.0603
     25 O         139.7449  145.4498  160.8380 O.2     1  UNL1       -0.1530
     26 O         141.6235  143.4818  159.5741 O.2     1  UNL1       -0.1530
     27 C         141.5946  144.5722  161.3935 C.ar    1  UNL1        0.1221
     28 C         142.9542  143.9396  161.3552 C.ar    1  UNL1        0.0222
     29 C         143.8646  144.0460  162.5426 C.ar    1  UNL1        0.0310
     30 C         143.4154  144.7849  163.7682 C.ar    1  UNL1        0.1402
     31 F         144.3258  144.8913  164.9556 F       1  UNL1       -0.2042
     32 C         142.0559  145.4175  163.8065 C.ar    1  UNL1        0.0310
     33 C         141.1455  145.3111  162.6191 C.ar    1  UNL1        0.0222
@<TRIPOS>BOND
     1    18    19    3
     2    19    12    1
     3    12    13   ar
     4    13    14   ar
     5    14    15   ar
     6    15    11    1
     7    11    10    1
     8    10     1    1
     9     1     2    1
    10     2     3    1
    11     3     4    1
    12     4     5    1
    13     5    20    1
    14    20    21    1
    15    21    22    1
    16    22    24    1
    17    24    25    2
    18    24    26    2
    19    24    27    1
    20    27    28   ar
    21    28    29   ar
    22    29    30   ar
    23    30    31    1
    24    30    32   ar
    25    32    33   ar
    26     5     6    1
    27     6     7    1
    28     7     8    1
    29     7     9    1
    30    15    16   ar
    31    16    17   ar
    32    17    12   ar
    33     8     1    1
    34     9     3    1
    35    33    27   ar
    36    22    23    1
@<TRIPOS>MOLECULE
*****
 33 36 0 0 0
SMALL
GASTEIGER

@<TRIPOS>ATOM
      1 N         142.0941  139.9570  160.2618 N.3     1  UNL1       -0.2682
      2 C         143.0883  141.0801  160.2451 C.3     1  UNL1        0.1035
      3 C         142.6151  142.5016  160.3179 C.3     1  UNL1        0.1470
      4 C         142.1420  143.9232  160.3906 C.3     1  UNL1        0.1035
      5 N         140.6747  144.2217  160.4800 N.3     1  UNL1       -0.2673
      6 C         139.6805  143.0985  160.4967 C.3     1  UNL1        0.1035
      7 C         140.1537  141.6770  160.4240 C.3     1  UNL1        0.1470
      8 C         140.6268  140.2554  160.3512 C.3     1  UNL1        0.1035
      9 O         141.1478  142.8001  160.4073 O.3     1  UNL1       -0.3530
     10 C         142.5673  138.5354  160.1891 C.3     1  UNL1        0.0769
     11 C         143.5799  138.0307  161.1738 C.3     1  UNL1        0.0437
     12 C         143.0507  138.8522  165.5664 C.ar    1  UNL1        0.0684
     13 C         144.2791  139.3373  164.8553 C.ar    1  UNL1        0.0100
     14 C         144.4556  139.0635  163.3912 C.ar    1  UNL1       -0.0035
     15 C         143.4035  138.3046  162.6381 C.ar    1  UNL1       -0.0207
     16 C         142.1751  137.8195  163.3491 C.ar    1  UNL1       -0.0035
     17 C         141.9987  138.0933  164.8133 C.ar    1  UNL1        0.0100
     18 N         142.6979  139.4000  168.4948 N.1     1  UNL1       -0.1908
     19 C         142.8743  139.1261  167.0307 C.1     1  UNL1        0.1004
     20 C         140.2015  145.6432  160.5527 C.3     1  UNL1        0.0913
     21 C         139.6746  146.1931  161.8450 C.3     1  UNL1        0.1087
     22 N         140.4117  145.9356  163.1257 N.3     1  UNL1       -0.1780
     23 H         140.1835  146.7040  163.7565 H       1  UNL1        0.1488
     24 S         140.1722  144.6652  163.8865 S.O2    1  UNL1        0.0603
     25 O         138.6937  144.8276  163.6921 O.2     1  UNL1       -0.1530
     26 O         141.6506  144.5028  164.0809 O.2     1  UNL1       -0.1530
     27 C         139.9326  143.3948  164.6473 C.ar    1  UNL1        0.1221
     28 C         138.8603  142.4450  164.2024 C.ar    1  UNL1        0.0222
     29 C         138.6207  141.1747  164.9631 C.ar    1  UNL1        0.0310
     30 C         139.4535  140.8541  166.1688 C.ar    1  UNL1        0.1402
     31 F         139.2140  139.5837  166.9296 F       1  UNL1       -0.2042
     32 C         140.5259  141.8039  166.6137 C.ar    1  UNL1        0.0310
     33 C         140.7655  143.0742  165.8529 C.ar    1  UNL1        0.0222
@<TRIPOS>BOND
     1    18    19    3
     2    19    12    1
     3    12    13   ar
     4    13    14   ar
     5    14    15   ar
     6    15    11    1
     7    11    10    1
     8    10     1    1
     9     1     2    1
    10     2     3    1
    11     3     4    1
    12     4     5    1
    13     5    20    1
    14    20    21    1
    15    21    22    1
    16    22    24    1
    17    24    25    2
    18    24    26    2
    19    24    27    1
    20    27    28   ar
    21    28    29   ar
    22    29    30   ar
    23    30    31    1
    24    30    32   ar
    25    32    33   ar
    26     5     6    1
    27     6     7    1
    28     7     8    1
    29     7     9    1
    30    15    16   ar
    31    16    17   ar
    32    17    12   ar
    33     8     1    1
    34     9     3    1
    35    33    27   ar
    36    22    23    1
