@<TRIPOS>MOLECULE
*****
 31 33 0 0 0
SMALL
GASTEIGER

@<TRIPOS>ATOM
      1 C         141.0999  143.7894  163.4865 C.ar    1  UNL1        0.1255
      2 C         141.8469  142.5713  163.9431 C.ar    1  UNL1        0.0233
      3 C         141.4711  141.9000  165.2308 C.ar    1  UNL1        0.0383
      4 C         140.3485  142.4467  166.0619 C.ar    1  UNL1        0.1386
      5 C         139.6016  143.6648  165.6054 C.ar    1  UNL1        0.0383
      6 C         139.9773  144.3361  164.3177 C.ar    1  UNL1        0.0233
      7 S         141.4756  144.4607  162.1989 S.O2    1  UNL1        0.0768
      8 O         140.7770  145.7103  162.6465 O.2     1  UNL1       -0.1498
      9 O         142.1742  143.2111  161.7512 O.2     1  UNL1       -0.1498
     10 O         139.5855  144.4027  159.8699 O.2     1  UNL1       -0.2509
     11 C         140.9062  145.1030  159.7466 C.2     1  UNL1        0.3231
     12 N         141.2819  145.7744  158.4590 N.am    1  UNL1       -0.2671
     13 N         141.8513  145.1320  160.9112 N.am    1  UNL1       -0.1690
     14 H         142.1487  146.2340  158.3781 H       1  UNL1        0.1565
     15 H         142.7181  145.5917  160.8303 H       1  UNL1        0.1781
     16 C         140.3368  145.7454  157.2944 C.ar    1  UNL1        0.0516
     17 C         140.0799  144.4580  156.5689 C.ar    1  UNL1        0.0147
     18 C         139.1349  144.4290  155.4044 C.ar    1  UNL1        0.0013
     19 C         138.4467  145.6875  154.9655 C.ar    1  UNL1        0.0001
     20 C         138.7036  146.9750  155.6911 C.ar    1  UNL1        0.0013
     21 C         139.6487  147.0039  156.8555 C.ar    1  UNL1        0.0147
     22 O         139.9728  141.7754  167.3496 O.3     1  UNL1       -0.4755
     23 C         140.0015  140.2792  167.4516 C.3     1  UNL1        0.2054
     24 C         138.7180  139.5029  167.4547 C.3     1  UNL1        0.0488
     25 C         138.1461  138.9941  166.1647 C.3     1  UNL1        0.0212
     26 C         138.9912  138.9744  164.9257 C.3     1  UNL1        0.0722
     27 N         138.7585  139.9862  163.8430 N.3     1  UNL1       -0.2727
     28 C         137.7256  141.0737  163.8597 C.3     1  UNL1        0.0721
     29 C         137.8466  141.8477  162.5805 C.3     1  UNL1        0.0188
     30 C         138.9543  141.2384  161.7731 C.3     1  UNL1        0.0188
     31 C         139.5179  140.0880  162.5534 C.3     1  UNL1        0.0721
@<TRIPOS>BOND
     1    10    11    2
     2    11    12   am
     3    12    16    1
     4    16    17   ar
     5    17    18   ar
     6    18    19   ar
     7    19    20   ar
     8    20    21   ar
     9    11    13   am
    10    13     7    1
    11     7     8    2
    12     7     9    2
    13     7     1    1
    14     1     2   ar
    15     2     3   ar
    16     3     4   ar
    17     4    22    1
    18    22    23    1
    19    23    24    1
    20    24    25    1
    21    25    26    1
    22    26    27    1
    23    27    28    1
    24    28    29    1
    25    29    30    1
    26    30    31    1
    27     4     5   ar
    28     5     6   ar
    29    21    16   ar
    30     6     1   ar
    31    31    27    1
    32    12    14    1
    33    13    15    1
@<TRIPOS>MOLECULE
*****
 31 33 0 0 0
SMALL
GASTEIGER

@<TRIPOS>ATOM
      1 C         140.9894  143.5025  163.2047 C.ar    1  UNL1        0.1255
      2 C         140.5854  144.1597  164.4912 C.ar    1  UNL1        0.0233
      3 C         140.0602  143.3295  165.6248 C.ar    1  UNL1        0.0383
      4 C         139.9389  141.8423  165.4720 C.ar    1  UNL1        0.1386
      5 C         140.3429  141.1851  164.1855 C.ar    1  UNL1        0.0383
      6 C         140.8681  142.0152  163.0519 C.ar    1  UNL1        0.0233
      7 S         141.5146  144.3325  162.0711 S.O2    1  UNL1        0.0768
      8 O         140.6494  145.4771  162.5084 O.2     1  UNL1       -0.1498
      9 O         142.3798  143.1879  161.6339 O.2     1  UNL1       -0.1498
     10 O         140.1957  144.2019  159.3797 O.2     1  UNL1       -0.2509
     11 C         141.3804  145.0973  159.5917 C.2     1  UNL1        0.3231
     12 N         141.9056  145.9273  158.4581 N.am    1  UNL1       -0.2671
     13 N         142.0398  145.1626  160.9375 N.am    1  UNL1       -0.1690
     14 H         142.6831  146.5150  158.5973 H       1  UNL1        0.1565
     15 H         142.8173  145.7502  161.0767 H       1  UNL1        0.1781
     16 C         141.2461  145.8620  157.1124 C.ar    1  UNL1        0.0516
     17 C         139.9308  146.5470  156.8877 C.ar    1  UNL1        0.0147
     18 C         139.2714  146.4817  155.5420 C.ar    1  UNL1        0.0013
     19 C         139.9274  145.7314  154.4210 C.ar    1  UNL1        0.0001
     20 C         141.2428  145.0464  154.6457 C.ar    1  UNL1        0.0013
     21 C         141.9021  145.1117  155.9914 C.ar    1  UNL1        0.0147
     22 O         139.4137  141.0122  166.6056 O.3     1  UNL1       -0.4755
     23 C         140.0808  141.0681  167.9480 C.3     1  UNL1        0.2054
     24 C         140.9766  139.9481  168.3876 C.3     1  UNL1        0.0488
     25 C         142.4313  139.9639  168.0223 C.3     1  UNL1        0.0212
     26 C         142.8450  139.8486  166.5851 C.3     1  UNL1        0.0722
     27 N         143.4553  141.0256  165.8835 N.3     1  UNL1       -0.2727
     28 C         144.1588  140.9950  164.5591 C.3     1  UNL1        0.0721
     29 C         144.6076  142.3904  164.2403 C.3     1  UNL1        0.0188
     30 C         144.1814  143.2833  165.3677 C.3     1  UNL1        0.0188
     31 C         143.4693  142.4398  166.3832 C.3     1  UNL1        0.0721
@<TRIPOS>BOND
     1    10    11    2
     2    11    12   am
     3    12    16    1
     4    16    17   ar
     5    17    18   ar
     6    18    19   ar
     7    19    20   ar
     8    20    21   ar
     9    11    13   am
    10    13     7    1
    11     7     8    2
    12     7     9    2
    13     7     1    1
    14     1     2   ar
    15     2     3   ar
    16     3     4   ar
    17     4    22    1
    18    22    23    1
    19    23    24    1
    20    24    25    1
    21    25    26    1
    22    26    27    1
    23    27    28    1
    24    28    29    1
    25    29    30    1
    26    30    31    1
    27     4     5   ar
    28     5     6   ar
    29    21    16   ar
    30     6     1   ar
    31    31    27    1
    32    12    14    1
    33    13    15    1
@<TRIPOS>MOLECULE
*****
 31 33 0 0 0
SMALL
GASTEIGER

@<TRIPOS>ATOM
      1 C         141.1644  143.8249  163.4796 C.ar    1  UNL1        0.1255
      2 C         140.0036  144.3304  164.2839 C.ar    1  UNL1        0.0233
      3 C         139.6647  143.6887  165.5967 C.ar    1  UNL1        0.0383
      4 C         140.4866  142.5416  166.1052 C.ar    1  UNL1        0.1386
      5 C         141.6475  142.0362  165.3009 C.ar    1  UNL1        0.0383
      6 C         141.9864  142.6778  163.9881 C.ar    1  UNL1        0.0233
      7 S         141.5034  144.4665  162.1668 S.O2    1  UNL1        0.0768
      8 O         142.1410  143.1890  161.7071 O.2     1  UNL1       -0.1498
      9 O         140.8657  145.7440  162.6265 O.2     1  UNL1       -0.1498
     10 O         139.5385  144.3762  159.9015 O.2     1  UNL1       -0.2509
     11 C         140.8599  145.0630  159.7213 C.2     1  UNL1        0.3231
     12 N         141.1988  145.7045  158.4086 N.am    1  UNL1       -0.2671
     13 N         141.8423  145.1081  160.8540 N.am    1  UNL1       -0.1690
     14 H         142.0660  146.1553  158.2903 H       1  UNL1        0.1565
     15 H         142.7095  145.5589  160.7358 H       1  UNL1        0.1781
     16 C         140.2164  145.6594  157.2759 C.ar    1  UNL1        0.0516
     17 C         139.8099  144.3408  156.6877 C.ar    1  UNL1        0.0147
     18 C         138.8276  144.2957  155.5551 C.ar    1  UNL1        0.0013
     19 C         138.2516  145.5692  155.0106 C.ar    1  UNL1        0.0001
     20 C         138.6581  146.8878  155.5988 C.ar    1  UNL1        0.0013
     21 C         139.6404  146.9329  156.7314 C.ar    1  UNL1        0.0147
     22 O         140.1477  141.9000  167.4180 O.3     1  UNL1       -0.4755
     23 C         140.2073  140.4081  167.5612 C.3     1  UNL1        0.2054
     24 C         138.9400  139.6059  167.5875 C.3     1  UNL1        0.0488
     25 C         138.2563  139.2415  166.3030 C.3     1  UNL1        0.0212
     26 C         138.5733  137.9403  165.6276 C.3     1  UNL1        0.0722
     27 N         139.6644  137.8748  164.6003 N.3     1  UNL1       -0.2727
     28 C         141.1368  137.9678  164.8709 C.3     1  UNL1        0.0721
     29 C         141.8571  137.8552  163.5599 C.3     1  UNL1        0.0188
     30 C         140.8297  137.6927  162.4791 C.3     1  UNL1        0.0188
     31 C         139.4746  137.7047  163.1221 C.3     1  UNL1        0.0721
@<TRIPOS>BOND
     1    10    11    2
     2    11    12   am
     3    12    16    1
     4    16    17   ar
     5    17    18   ar
     6    18    19   ar
     7    19    20   ar
     8    20    21   ar
     9    11    13   am
    10    13     7    1
    11     7     8    2
    12     7     9    2
    13     7     1    1
    14     1     2   ar
    15     2     3   ar
    16     3     4   ar
    17     4    22    1
    18    22    23    1
    19    23    24    1
    20    24    25    1
    21    25    26    1
    22    26    27    1
    23    27    28    1
    24    28    29    1
    25    29    30    1
    26    30    31    1
    27     4     5   ar
    28     5     6   ar
    29    21    16   ar
    30     6     1   ar
    31    31    27    1
    32    12    14    1
    33    13    15    1
@<TRIPOS>MOLECULE
*****
 31 33 0 0 0
SMALL
GASTEIGER

@<TRIPOS>ATOM
      1 C         138.5209  139.1262  163.1342 C.ar    1  UNL1        0.1255
      2 C         139.0491  137.9357  162.3900 C.ar    1  UNL1        0.0233
      3 C         139.2051  137.9919  160.8991 C.ar    1  UNL1        0.0383
      4 C         138.8330  139.2385  160.1526 C.ar    1  UNL1        0.1386
      5 C         138.3049  140.4290  160.8968 C.ar    1  UNL1        0.0383
      6 C         138.1488  140.3729  162.3876 C.ar    1  UNL1        0.0233
      7 S         138.3649  139.0700  164.6250 S.O2    1  UNL1        0.0768
      8 O         138.9304  137.6808  164.6318 O.2     1  UNL1       -0.1498
      9 O         137.7993  140.4593  164.6181 O.2     1  UNL1       -0.1498
     10 O         140.3657  140.4352  166.3951 O.2     1  UNL1       -0.2509
     11 C         139.2093  139.6965  167.0008 C.2     1  UNL1        0.3231
     12 N         139.0532  139.6403  168.4916 N.am    1  UNL1       -0.2671
     13 N         138.2088  139.0139  166.1157 N.am    1  UNL1       -0.1690
     14 H         138.2942  139.1555  168.8892 H       1  UNL1        0.1565
     15 H         137.4498  138.5290  166.5133 H       1  UNL1        0.1781
     16 C         140.0536  140.3229  169.3767 C.ar    1  UNL1        0.0516
     17 C         139.7352  141.6604  169.9763 C.ar    1  UNL1        0.0147
     18 C         140.7356  142.3429  170.8613 C.ar    1  UNL1        0.0013
     19 C         142.0545  141.6879  171.1468 C.ar    1  UNL1        0.0001
     20 C         142.3729  140.3504  170.5472 C.ar    1  UNL1        0.0013
     21 C         141.3725  139.6679  169.6621 C.ar    1  UNL1        0.0147
     22 O         138.9890  139.2947  158.6618 O.3     1  UNL1       -0.4755
     23 C         140.3460  139.5015  158.0570 C.3     1  UNL1        0.2054
     24 C         141.2542  138.3288  157.8335 C.3     1  UNL1        0.0488
     25 C         142.3546  138.0355  158.8098 C.3     1  UNL1        0.0212
     26 C         142.9427  139.1437  159.6320 C.3     1  UNL1        0.0722
     27 N         142.6838  139.2008  161.1084 N.3     1  UNL1       -0.2727
     28 C         142.9567  138.1040  162.0945 C.3     1  UNL1        0.0721
     29 C         142.5480  138.5901  163.4535 C.3     1  UNL1        0.0188
     30 C         142.0225  139.9874  163.3072 C.3     1  UNL1        0.0188
     31 C         142.1064  140.3648  161.8579 C.3     1  UNL1        0.0721
@<TRIPOS>BOND
     1    10    11    2
     2    11    12   am
     3    12    16    1
     4    16    17   ar
     5    17    18   ar
     6    18    19   ar
     7    19    20   ar
     8    20    21   ar
     9    11    13   am
    10    13     7    1
    11     7     8    2
    12     7     9    2
    13     7     1    1
    14     1     2   ar
    15     2     3   ar
    16     3     4   ar
    17     4    22    1
    18    22    23    1
    19    23    24    1
    20    24    25    1
    21    25    26    1
    22    26    27    1
    23    27    28    1
    24    28    29    1
    25    29    30    1
    26    30    31    1
    27     4     5   ar
    28     5     6   ar
    29    21    16   ar
    30     6     1   ar
    31    31    27    1
    32    12    14    1
    33    13    15    1
@<TRIPOS>MOLECULE
*****
 31 33 0 0 0
SMALL
GASTEIGER

@<TRIPOS>ATOM
      1 C         138.7343  138.9016  163.2469 C.ar    1  UNL1        0.1255
      2 C         139.0443  137.6827  164.0643 C.ar    1  UNL1        0.0233
      3 C         138.9800  137.7474  165.5616 C.ar    1  UNL1        0.0383
      4 C         138.6057  139.0310  166.2414 C.ar    1  UNL1        0.1386
      5 C         138.2957  140.2500  165.4240 C.ar    1  UNL1        0.0383
      6 C         138.3600  140.1853  163.9268 C.ar    1  UNL1        0.0233
      7 S         138.7986  138.8370  161.7497 S.O2    1  UNL1        0.0768
      8 O         137.3742  138.3689  161.7087 O.2     1  UNL1       -0.1498
      9 O         140.2231  139.3050  161.7907 O.2     1  UNL1       -0.1498
     10 O         137.9335  141.1941  160.1079 O.2     1  UNL1       -0.2509
     11 C         138.4304  139.9509  159.4316 C.2     1  UNL1        0.3231
     12 N         138.4947  139.8862  157.9344 N.am    1  UNL1       -0.2671
     13 N         138.8630  138.7723  160.2525 N.am    1  UNL1       -0.1690
     14 H         138.8208  139.0702  157.4905 H       1  UNL1        0.1565
     15 H         139.1891  137.9563  159.8086 H       1  UNL1        0.1781
     16 C         138.0622  141.0648  157.1135 C.ar    1  UNL1        0.0516
     17 C         136.7017  141.0802  156.4820 C.ar    1  UNL1        0.0147
     18 C         136.2692  142.2588  155.6611 C.ar    1  UNL1        0.0013
     19 C         137.1972  143.4220  155.4717 C.ar    1  UNL1        0.0001
     20 C         138.5576  143.4066  156.1032 C.ar    1  UNL1        0.0013
     21 C         138.9901  142.2280  156.9241 C.ar    1  UNL1        0.0147
     22 O         138.5413  139.0957  167.7386 O.3     1  UNL1       -0.4755
     23 C         139.2642  140.1850  168.4740 C.3     1  UNL1        0.2054
     24 C         140.5196  139.8722  169.2331 C.3     1  UNL1        0.0488
     25 C         141.5891  140.9143  169.3759 C.3     1  UNL1        0.0212
     26 C         142.7059  140.9846  168.3771 C.3     1  UNL1        0.0722
     27 N         142.6098  140.2210  167.0895 N.3     1  UNL1       -0.2727
     28 C         142.0198  140.7266  165.8065 C.3     1  UNL1        0.0721
     29 C         142.1322  139.6359  164.7830 C.3     1  UNL1        0.0188
     30 C         142.7918  138.4561  165.4335 C.3     1  UNL1        0.0188
     31 C         143.0869  138.8177  166.8590 C.3     1  UNL1        0.0721
@<TRIPOS>BOND
     1    10    11    2
     2    11    12   am
     3    12    16    1
     4    16    17   ar
     5    17    18   ar
     6    18    19   ar
     7    19    20   ar
     8    20    21   ar
     9    11    13   am
    10    13     7    1
    11     7     8    2
    12     7     9    2
    13     7     1    1
    14     1     2   ar
    15     2     3   ar
    16     3     4   ar
    17     4    22    1
    18    22    23    1
    19    23    24    1
    20    24    25    1
    21    25    26    1
    22    26    27    1
    23    27    28    1
    24    28    29    1
    25    29    30    1
    26    30    31    1
    27     4     5   ar
    28     5     6   ar
    29    21    16   ar
    30     6     1   ar
    31    31    27    1
    32    12    14    1
    33    13    15    1
@<TRIPOS>MOLECULE
*****
 31 33 0 0 0
SMALL
GASTEIGER

@<TRIPOS>ATOM
      1 C         143.2515  139.7527  162.8691 C.ar    1  UNL1        0.1255
      2 C         142.1452  140.7280  163.1431 C.ar    1  UNL1        0.0233
      3 C         141.7802  141.0701  164.5573 C.ar    1  UNL1        0.0383
      4 C         142.5213  140.4369  165.6973 C.ar    1  UNL1        0.1386
      5 C         143.6275  139.4616  165.4233 C.ar    1  UNL1        0.0383
      6 C         143.9926  139.1195  164.0092 C.ar    1  UNL1        0.0233
      7 S         143.6165  139.4106  161.4550 S.O2    1  UNL1        0.0768
      8 O         143.3432  140.8264  161.0419 O.2     1  UNL1       -0.1498
      9 O         143.8898  137.9947  161.8681 O.2     1  UNL1       -0.1498
     10 O         141.5191  138.3867  159.5701 O.2     1  UNL1       -0.2509
     11 C         142.9329  138.5565  159.0985 C.2     1  UNL1        0.3231
     12 N         143.2980  138.2144  157.6844 N.am    1  UNL1       -0.2671
     13 N         143.9816  139.0685  160.0409 N.am    1  UNL1       -0.1690
     14 H         144.2259  138.3259  157.3748 H       1  UNL1        0.1565
     15 H         144.9095  139.1799  159.7314 H       1  UNL1        0.1781
     16 C         142.2493  137.7025  156.7419 C.ar    1  UNL1        0.0516
     17 C         142.1526  136.2336  156.4536 C.ar    1  UNL1        0.0147
     18 C         141.1040  135.7217  155.5112 C.ar    1  UNL1        0.0013
     19 C         140.1519  136.6787  154.8570 C.ar    1  UNL1        0.0001
     20 C         140.2486  138.1475  155.1453 C.ar    1  UNL1        0.0013
     21 C         141.2972  138.6594  156.0878 C.ar    1  UNL1        0.0147
     22 O         142.1563  140.7790  167.1114 O.3     1  UNL1       -0.4755
     23 C         141.0826  140.0048  167.8171 C.3     1  UNL1        0.2054
     24 C         139.6390  140.3320  167.5738 C.3     1  UNL1        0.0488
     25 C         138.7057  139.2739  167.0645 C.3     1  UNL1        0.0212
     26 C         138.2625  139.2913  165.6316 C.3     1  UNL1        0.0722
     27 N         139.0716  138.5804  164.5876 N.3     1  UNL1       -0.2727
     28 C         138.8521  138.6471  163.1053 C.3     1  UNL1        0.0721
     29 C         139.8871  137.7859  162.4442 C.3     1  UNL1        0.0188
     30 C         140.7463  137.1868  163.5179 C.3     1  UNL1        0.0188
     31 C         140.2423  137.6778  164.8426 C.3     1  UNL1        0.0721
@<TRIPOS>BOND
     1    10    11    2
     2    11    12   am
     3    12    16    1
     4    16    17   ar
     5    17    18   ar
     6    18    19   ar
     7    19    20   ar
     8    20    21   ar
     9    11    13   am
    10    13     7    1
    11     7     8    2
    12     7     9    2
    13     7     1    1
    14     1     2   ar
    15     2     3   ar
    16     3     4   ar
    17     4    22    1
    18    22    23    1
    19    23    24    1
    20    24    25    1
    21    25    26    1
    22    26    27    1
    23    27    28    1
    24    28    29    1
    25    29    30    1
    26    30    31    1
    27     4     5   ar
    28     5     6   ar
    29    21    16   ar
    30     6     1   ar
    31    31    27    1
    32    12    14    1
    33    13    15    1
@<TRIPOS>MOLECULE
*****
 31 33 0 0 0
SMALL
GASTEIGER

@<TRIPOS>ATOM
      1 C         138.4671  139.2144  163.1296 C.ar    1  UNL1        0.1255
      2 C         139.2591  138.1949  162.3657 C.ar    1  UNL1        0.0233
      3 C         139.3340  138.2707  160.8695 C.ar    1  UNL1        0.0383
      4 C         138.6169  139.3658  160.1371 C.ar    1  UNL1        0.1386
      5 C         137.8249  140.3853  160.9009 C.ar    1  UNL1        0.0383
      6 C         137.7500  140.3096  162.3971 C.ar    1  UNL1        0.0233
      7 S         138.3922  139.1387  164.6258 S.O2    1  UNL1        0.0768
      8 O         139.0256  137.7795  164.5887 O.2     1  UNL1       -0.1498
      9 O         137.7589  140.4979  164.6628 O.2     1  UNL1       -0.1498
     10 O         140.3774  140.6356  166.3046 O.2     1  UNL1       -0.2509
     11 C         139.3100  139.8115  166.9614 C.2     1  UNL1        0.3231
     12 N         139.2351  139.7358  168.4576 N.am    1  UNL1       -0.2671
     13 N         138.3173  139.0631  166.1219 N.am    1  UNL1       -0.1690
     14 H         138.5344  139.1950  168.8887 H       1  UNL1        0.1565
     15 H         137.6167  138.5222  166.5530 H       1  UNL1        0.1781
     16 C         140.2277  140.4842  169.2971 C.ar    1  UNL1        0.0516
     17 C         141.4037  139.7648  169.8881 C.ar    1  UNL1        0.0147
     18 C         142.3963  140.5132  170.7275 C.ar    1  UNL1        0.0013
     19 C         142.2128  141.9811  170.9759 C.ar    1  UNL1        0.0001
     20 C         141.0367  142.7005  170.3849 C.ar    1  UNL1        0.0013
     21 C         140.0442  141.9521  169.5455 C.ar    1  UNL1        0.0147
     22 O         138.6918  139.4415  158.6409 O.3     1  UNL1       -0.4755
     23 C         138.2281  140.6773  157.9283 C.3     1  UNL1        0.2054
     24 C         139.1867  141.8039  157.6797 C.3     1  UNL1        0.0488
     25 C         139.3480  142.8906  158.7011 C.3     1  UNL1        0.0212
     26 C         140.6475  143.0440  159.4343 C.3     1  UNL1        0.0722
     27 N         140.7506  142.6299  160.8723 N.3     1  UNL1       -0.2727
     28 C         141.4969  141.4385  161.3955 C.3     1  UNL1        0.0721
     29 C         141.3331  141.4068  162.8862 C.3     1  UNL1        0.0188
     30 C         140.4856  142.5787  163.2844 C.3     1  UNL1        0.0188
     31 C         140.1256  143.3346  162.0397 C.3     1  UNL1        0.0721
@<TRIPOS>BOND
     1    10    11    2
     2    11    12   am
     3    12    16    1
     4    16    17   ar
     5    17    18   ar
     6    18    19   ar
     7    19    20   ar
     8    20    21   ar
     9    11    13   am
    10    13     7    1
    11     7     8    2
    12     7     9    2
    13     7     1    1
    14     1     2   ar
    15     2     3   ar
    16     3     4   ar
    17     4    22    1
    18    22    23    1
    19    23    24    1
    20    24    25    1
    21    25    26    1
    22    26    27    1
    23    27    28    1
    24    28    29    1
    25    29    30    1
    26    30    31    1
    27     4     5   ar
    28     5     6   ar
    29    21    16   ar
    30     6     1   ar
    31    31    27    1
    32    12    14    1
    33    13    15    1
@<TRIPOS>MOLECULE
*****
 31 33 0 0 0
SMALL
GASTEIGER

@<TRIPOS>ATOM
      1 C         138.7977  139.2871  162.8919 C.ar    1  UNL1        0.1255
      2 C         139.6921  138.2946  162.2099 C.ar    1  UNL1        0.0233
      3 C         139.7199  138.2153  160.7122 C.ar    1  UNL1        0.0383
      4 C         138.8533  139.1283  159.8966 C.ar    1  UNL1        0.1386
      5 C         137.9589  140.1208  160.5785 C.ar    1  UNL1        0.0383
      6 C         137.9311  140.2002  162.0762 C.ar    1  UNL1        0.0233
      7 S         138.7699  139.3665  164.3895 S.O2    1  UNL1        0.0768
      8 O         139.6277  138.1387  164.4705 O.2     1  UNL1       -0.1498
      9 O         137.9121  140.5944  164.3084 O.2     1  UNL1       -0.1498
     10 O         140.8237  141.0000  165.8434 O.2     1  UNL1       -0.2509
     11 C         139.7690  140.2627  166.6141 C.2     1  UNL1        0.3231
     12 N         139.7412  140.3421  168.1117 N.am    1  UNL1       -0.2671
     13 N         138.7421  139.4460  165.8871 N.am    1  UNL1       -0.1690
     14 H         139.0490  139.8582  168.6175 H       1  UNL1        0.1565
     15 H         138.0498  138.9621  166.3929 H       1  UNL1        0.1781
     16 C         140.7682  141.1589  168.8386 C.ar    1  UNL1        0.0516
     17 C         142.1172  140.5748  169.1367 C.ar    1  UNL1        0.0147
     18 C         143.1441  141.3915  169.8636 C.ar    1  UNL1        0.0013
     19 C         142.8219  142.7923  170.2925 C.ar    1  UNL1        0.0001
     20 C         141.4728  143.3764  169.9945 C.ar    1  UNL1        0.0013
     21 C         140.4460  142.5597  169.2676 C.ar    1  UNL1        0.0147
     22 O         138.8811  139.0489  158.3990 O.3     1  UNL1       -0.4755
     23 C         139.8490  138.1299  157.7145 C.3     1  UNL1        0.2054
     24 C         141.2796  138.5446  157.5371 C.3     1  UNL1        0.0488
     25 C         142.3840  137.5725  157.8294 C.3     1  UNL1        0.0212
     26 C         143.0447  136.8283  156.7070 C.3     1  UNL1        0.0722
     27 N         142.7167  135.3841  156.4693 N.3     1  UNL1       -0.2727
     28 C         143.3602  134.2107  157.1468 C.3     1  UNL1        0.0721
     29 C         142.7290  132.9610  156.6085 C.3     1  UNL1        0.0188
     30 C         141.6953  133.3620  155.5983 C.3     1  UNL1        0.0188
     31 C         141.6877  134.8595  155.5122 C.3     1  UNL1        0.0721
@<TRIPOS>BOND
     1    10    11    2
     2    11    12   am
     3    12    16    1
     4    16    17   ar
     5    17    18   ar
     6    18    19   ar
     7    19    20   ar
     8    20    21   ar
     9    11    13   am
    10    13     7    1
    11     7     8    2
    12     7     9    2
    13     7     1    1
    14     1     2   ar
    15     2     3   ar
    16     3     4   ar
    17     4    22    1
    18    22    23    1
    19    23    24    1
    20    24    25    1
    21    25    26    1
    22    26    27    1
    23    27    28    1
    24    28    29    1
    25    29    30    1
    26    30    31    1
    27     4     5   ar
    28     5     6   ar
    29    21    16   ar
    30     6     1   ar
    31    31    27    1
    32    12    14    1
    33    13    15    1
@<TRIPOS>MOLECULE
*****
 31 33 0 0 0
SMALL
GASTEIGER

@<TRIPOS>ATOM
      1 C         142.9554  138.9447  162.7715 C.ar    1  UNL1        0.1255
      2 C         141.5862  138.8084  162.1742 C.ar    1  UNL1        0.0233
      3 C         141.3759  139.0723  160.7126 C.ar    1  UNL1        0.0383
      4 C         142.5347  139.4724  159.8483 C.ar    1  UNL1        0.1386
      5 C         143.9039  139.6086  160.4456 C.ar    1  UNL1        0.0383
      6 C         144.1143  139.3448  161.9071 C.ar    1  UNL1        0.0233
      7 S         143.1658  138.6809  164.2330 S.O2    1  UNL1        0.0768
      8 O         144.4556  139.4450  164.1853 O.2     1  UNL1       -0.1498
      9 O         141.8759  137.9167  164.2807 O.2     1  UNL1       -0.1498
     10 O         142.0080  140.5478  166.2761 O.2     1  UNL1       -0.2509
     11 C         142.7973  139.3505  166.7161 C.2     1  UNL1        0.3231
     12 N         143.0077  139.0867  168.1776 N.am    1  UNL1       -0.2671
     13 N         143.3762  138.4170  165.6945 N.am    1  UNL1       -0.1690
     14 H         143.5257  138.3009  168.4664 H       1  UNL1        0.1565
     15 H         143.8942  137.6312  165.9833 H       1  UNL1        0.1781
     16 C         142.4288  140.0202  169.1992 C.ar    1  UNL1        0.0516
     17 C         143.1099  141.3233  169.4956 C.ar    1  UNL1        0.0147
     18 C         142.5310  142.2567  170.5172 C.ar    1  UNL1        0.0013
     19 C         141.2710  141.8870  171.2423 C.ar    1  UNL1        0.0001
     20 C         140.5900  140.5838  170.9459 C.ar    1  UNL1        0.0013
     21 C         141.1688  139.6504  169.9244 C.ar    1  UNL1        0.0147
     22 O         142.3243  139.7362  158.3868 O.3     1  UNL1       -0.4755
     23 C         141.8180  141.0726  157.9312 C.3     1  UNL1        0.2054
     24 C         141.5208  142.1448  158.9373 C.3     1  UNL1        0.0488
     25 C         142.5268  143.2257  159.2008 C.3     1  UNL1        0.0212
     26 C         143.4539  143.1174  160.3750 C.3     1  UNL1        0.0722
     27 N         143.1884  143.9164  161.6164 N.3     1  UNL1       -0.2727
     28 C         144.1873  144.2384  162.6881 C.3     1  UNL1        0.0721
     29 C         143.4937  145.0547  163.7382 C.3     1  UNL1        0.0188
     30 C         142.0661  145.2371  163.3155 C.3     1  UNL1        0.0188
     31 C         141.8775  144.5336  162.0042 C.3     1  UNL1        0.0721
@<TRIPOS>BOND
     1    10    11    2
     2    11    12   am
     3    12    16    1
     4    16    17   ar
     5    17    18   ar
     6    18    19   ar
     7    19    20   ar
     8    20    21   ar
     9    11    13   am
    10    13     7    1
    11     7     8    2
    12     7     9    2
    13     7     1    1
    14     1     2   ar
    15     2     3   ar
    16     3     4   ar
    17     4    22    1
    18    22    23    1
    19    23    24    1
    20    24    25    1
    21    25    26    1
    22    26    27    1
    23    27    28    1
    24    28    29    1
    25    29    30    1
    26    30    31    1
    27     4     5   ar
    28     5     6   ar
    29    21    16   ar
    30     6     1   ar
    31    31    27    1
    32    12    14    1
    33    13    15    1
