@<TRIPOS>MOLECULE
*****
 41 43 0 0 0
SMALL
GASTEIGER

@<TRIPOS>ATOM
      1 C         139.5751  139.0039  159.9931 C.ar    1  UNL1        0.0597
      2 C         139.5250  138.2087  161.2640 C.ar    1  UNL1        0.0422
      3 C         138.8757  138.7878  162.4859 C.ar    1  UNL1        0.1485
      4 C         138.2765  140.1620  162.4369 C.ar    1  UNL1        0.0743
      5 C         138.3266  140.9572  161.1660 C.ar    1  UNL1        0.1416
      6 C         138.9759  140.3781  159.9442 C.ar    1  UNL1        0.0416
      7 N         141.7154  138.2707  158.7158 N.am    1  UNL1       -0.2644
      8 C         140.2244  138.4248  158.7712 C.2     1  UNL1        0.2508
      9 O         139.3827  137.9999  157.6046 O.2     1  UNL1       -0.2698
     10 H         142.2679  138.5497  159.4815 H       1  UNL1        0.1566
     11 N         143.3145  136.1146  155.9123 N.ar    1  UNL1       -0.2357
     12 C         143.4134  137.4868  155.3146 C.ar    1  UNL1        0.0988
     13 C         142.8264  138.4616  156.2921 C.ar    1  UNL1        0.0565
     14 C         142.3648  137.6917  157.4938 C.ar    1  UNL1        0.1557
     15 N         142.6664  136.2412  157.2591 N.ar    1  UNL1       -0.1534
     16 C         143.7816  134.8396  155.2751 C.3     1  UNL1        0.2423
     17 P         142.9527  133.5950  155.3921 P.3     1  UNL1        0.3677
     18 O         142.1237  132.3504  155.5090 O.2     1  UNL1       -0.2557
     19 O         144.1329  132.8620  155.9576 O.3     1  UNL1       -0.2928
     20 C         145.5153  132.1589  158.0419 C.3     1  UNL1        0.0352
     21 C         144.2187  132.6035  157.4326 C.3     1  UNL1        0.1515
     22 O         141.7724  134.3280  154.8265 O.3     1  UNL1       -0.2928
     23 C         141.3628  134.1036  153.4011 C.3     1  UNL1        0.1515
     24 C         141.6667  135.1410  152.3612 C.3     1  UNL1        0.0352
     25 O         138.8256  137.9926  163.7568 O.3     1  UNL1       -0.4534
     26 C         139.1312  138.6541  165.0679 C.ar    1  UNL1        0.1454
     27 C         138.1086  138.6522  166.1654 C.ar    1  UNL1        0.0388
     28 C         138.4142  139.3137  167.4765 C.ar    1  UNL1        0.0215
     29 C         139.7425  139.9772  167.6901 C.ar    1  UNL1        0.1058
     30 C         140.7651  139.9791  166.5928 C.ar    1  UNL1        0.0215
     31 C         140.4594  139.3175  165.2817 C.ar    1  UNL1        0.0388
     32 S         140.0481  140.6387  169.0012 S.O2    1  UNL1        0.0070
     33 O         138.8225  140.0159  169.6012 O.2     1  UNL1       -0.1687
     34 O         141.2738  141.2615  168.4013 O.2     1  UNL1       -0.1687
     35 C         140.3537  141.3002  170.3123 C.3     1  UNL1        0.1339
     36 C         141.3291  140.6694  171.2613 C.3     1  UNL1        0.0257
     37 C         139.6840  142.5927  170.6744 C.3     1  UNL1        0.0257
     38 O         137.7274  142.3314  161.1171 O.3     1  UNL1       -0.4791
     39 C         138.3380  143.4448  161.9154 C.3     1  UNL1        0.1661
     40 C         137.6604  143.9337  163.1611 C.3     1  UNL1        0.0472
     41 C         139.6264  144.0694  161.4681 C.3     1  UNL1        0.0472
@<TRIPOS>BOND
     1    20    21    1
     2    21    19    1
     3    19    17    1
     4    17    18    2
     5    17    16    1
     6    16    11    1
     7    11    12   ar
     8    12    13   ar
     9    13    14   ar
    10    14     7    1
    11     7     8   am
    12     8     9    2
    13     8     1    1
    14     1     2   ar
    15     2     3   ar
    16     3    25    1
    17    25    26    1
    18    26    27   ar
    19    27    28   ar
    20    28    29   ar
    21    29    32    1
    22    32    33    2
    23    32    34    2
    24    32    35    1
    25    35    36    1
    26    35    37    1
    27    29    30   ar
    28    30    31   ar
    29     3     4   ar
    30     4     5   ar
    31     5    38    1
    32    38    39    1
    33    39    40    1
    34    39    41    1
    35     5     6   ar
    36    14    15   ar
    37    17    22    1
    38    22    23    1
    39    23    24    1
    40    15    11   ar
    41     6     1   ar
    42    31    26   ar
    43     7    10    1
@<TRIPOS>MOLECULE
*****
 41 43 0 0 0
SMALL
GASTEIGER

@<TRIPOS>ATOM
      1 C         139.3950  139.8178  160.2457 C.ar    1  UNL1        0.0597
      2 C         139.2421  138.9417  161.4536 C.ar    1  UNL1        0.0422
      3 C         138.5683  139.4721  162.6843 C.ar    1  UNL1        0.1485
      4 C         138.0474  140.8786  162.7071 C.ar    1  UNL1        0.0743
      5 C         138.2002  141.7546  161.4991 C.ar    1  UNL1        0.1416
      6 C         138.8740  141.2242  160.2685 C.ar    1  UNL1        0.0416
      7 N         141.5662  139.2365  158.9425 N.am    1  UNL1       -0.2644
      8 C         140.0688  139.2874  159.0149 C.2     1  UNL1        0.2508
      9 O         139.2452  138.8079  157.8566 O.2     1  UNL1       -0.2698
     10 H         142.1067  139.5512  159.7028 H       1  UNL1        0.1566
     11 N         143.4032  137.2387  156.1677 N.ar    1  UNL1       -0.2357
     12 C         143.1505  138.5414  155.4680 C.ar    1  UNL1        0.0988
     13 C         142.4316  139.4483  156.4224 C.ar    1  UNL1        0.0565
     14 C         142.2400  138.7061  157.7118 C.ar    1  UNL1        0.1557
     15 N         142.8404  137.3406  157.5543 N.ar    1  UNL1       -0.1534
     16 C         144.0968  136.0441  155.5832 C.3     1  UNL1        0.2423
     17 P         143.3556  134.7497  155.4244 P.3     1  UNL1        0.3677
     18 O         142.6145  133.4553  155.2656 O.2     1  UNL1       -0.2557
     19 O         142.6971  135.2788  154.1849 O.3     1  UNL1       -0.2928
     20 C         140.3365  136.1140  154.8776 C.3     1  UNL1        0.0352
     21 C         141.2049  135.2187  154.0444 C.3     1  UNL1        0.1515
     22 O         144.0142  134.2206  156.6640 O.3     1  UNL1       -0.2928
     23 C         144.3957  132.7725  156.7508 C.3     1  UNL1        0.1515
     24 C         145.2044  132.2784  157.9134 C.3     1  UNL1        0.0352
     25 O         138.4154  138.5960  163.8923 O.3     1  UNL1       -0.4534
     26 C         139.0656  138.9840  165.1872 C.ar    1  UNL1        0.1454
     27 C         140.5428  139.2399  165.2377 C.ar    1  UNL1        0.0388
     28 C         141.1929  139.6279  166.5326 C.ar    1  UNL1        0.0215
     29 C         140.3658  139.7600  167.7771 C.ar    1  UNL1        0.1058
     30 C         138.8887  139.5040  167.7266 C.ar    1  UNL1        0.0215
     31 C         138.2386  139.1161  166.4316 C.ar    1  UNL1        0.0388
     32 S         141.0159  140.1479  169.0720 S.O2    1  UNL1        0.0070
     33 O         142.2895  140.4536  168.3410 O.2     1  UNL1       -0.1687
     34 O         139.7422  139.8423  169.8030 O.2     1  UNL1       -0.1687
     35 C         141.6660  140.5359  170.3669 C.3     1  UNL1        0.1339
     36 C         142.9862  139.9372  170.7523 C.3     1  UNL1        0.0257
     37 C         140.9958  141.5227  171.2765 C.3     1  UNL1        0.0257
     38 O         137.6793  143.1611  161.5219 O.3     1  UNL1       -0.4791
     39 C         138.2220  144.1459  162.5146 C.3     1  UNL1        0.1661
     40 C         139.3404  145.0660  162.1236 C.3     1  UNL1        0.0472
     41 C         137.6465  144.2108  163.8983 C.3     1  UNL1        0.0472
@<TRIPOS>BOND
     1    20    21    1
     2    21    19    1
     3    19    17    1
     4    17    18    2
     5    17    16    1
     6    16    11    1
     7    11    12   ar
     8    12    13   ar
     9    13    14   ar
    10    14     7    1
    11     7     8   am
    12     8     9    2
    13     8     1    1
    14     1     2   ar
    15     2     3   ar
    16     3    25    1
    17    25    26    1
    18    26    27   ar
    19    27    28   ar
    20    28    29   ar
    21    29    32    1
    22    32    33    2
    23    32    34    2
    24    32    35    1
    25    35    36    1
    26    35    37    1
    27    29    30   ar
    28    30    31   ar
    29     3     4   ar
    30     4     5   ar
    31     5    38    1
    32    38    39    1
    33    39    40    1
    34    39    41    1
    35     5     6   ar
    36    14    15   ar
    37    17    22    1
    38    22    23    1
    39    23    24    1
    40    15    11   ar
    41     6     1   ar
    42    31    26   ar
    43     7    10    1
@<TRIPOS>MOLECULE
*****
 41 43 0 0 0
SMALL
GASTEIGER

@<TRIPOS>ATOM
      1 C         139.3213  139.7390  160.0130 C.ar    1  UNL1        0.0597
      2 C         139.2016  138.8468  161.2128 C.ar    1  UNL1        0.0422
      3 C         138.5971  139.3723  162.4809 C.ar    1  UNL1        0.1485
      4 C         138.1122  140.7901  162.5493 C.ar    1  UNL1        0.0743
      5 C         138.2319  141.6824  161.3495 C.ar    1  UNL1        0.1416
      6 C         138.8364  141.1569  160.0814 C.ar    1  UNL1        0.0416
      7 N         139.0403  138.7024  157.6473 N.am    1  UNL1       -0.2644
      8 C         139.9259  139.2135  158.7447 C.2     1  UNL1        0.2508
      9 O         141.4161  139.1991  158.5740 O.2     1  UNL1       -0.2698
     10 H         138.0622  138.7118  157.7594 H       1  UNL1        0.1566
     11 N         140.7019  136.7086  154.7612 N.ar    1  UNL1       -0.2357
     12 C         140.4484  138.0278  154.0937 C.ar    1  UNL1        0.0988
     13 C         139.7951  138.9353  155.0937 C.ar    1  UNL1        0.0565
     14 C         139.6448  138.1769  156.3790 C.ar    1  UNL1        0.1557
     15 N         140.2053  136.8007  156.1736 N.ar    1  UNL1       -0.1534
     16 C         141.3399  135.5081  154.1275 C.3     1  UNL1        0.2423
     17 P         142.2907  134.6590  154.9181 P.3     1  UNL1        0.3677
     18 O         143.2414  133.8098  155.7087 O.2     1  UNL1       -0.2557
     19 O         143.4210  135.5676  154.5350 O.3     1  UNL1       -0.2928
     20 C         144.2735  137.8685  155.3887 C.3     1  UNL1        0.0352
     21 C         144.1103  136.3901  155.5830 C.3     1  UNL1        0.1515
     22 O         141.1603  133.7503  155.3013 O.3     1  UNL1       -0.2928
     23 C         141.3401  132.2624  155.2392 C.3     1  UNL1        0.1515
     24 C         140.6477  131.4671  154.1724 C.3     1  UNL1        0.0352
     25 O         138.4774  138.4800  163.6808 O.3     1  UNL1       -0.4534
     26 C         139.0821  138.8968  164.9887 C.ar    1  UNL1        0.1454
     27 C         138.2121  139.0562  166.2003 C.ar    1  UNL1        0.0388
     28 C         138.8168  139.4730  167.5082 C.ar    1  UNL1        0.0215
     29 C         140.2915  139.7305  167.6045 C.ar    1  UNL1        0.1058
     30 C         141.1614  139.5711  166.3929 C.ar    1  UNL1        0.0215
     31 C         140.5567  139.1543  165.0850 C.ar    1  UNL1        0.0388
     32 S         140.8962  140.1473  168.9124 S.O2    1  UNL1        0.0070
     33 O         139.5885  139.8876  169.5998 O.2     1  UNL1       -0.1687
     34 O         142.2039  140.4070  168.2250 O.2     1  UNL1       -0.1687
     35 C         141.5009  140.5641  170.2203 C.3     1  UNL1        0.1339
     36 C         142.8669  140.0775  170.6040 C.3     1  UNL1        0.0257
     37 C         140.7396  141.4676  171.1445 C.3     1  UNL1        0.0257
     38 O         137.7470  143.1002  161.4179 O.3     1  UNL1       -0.4791
     39 C         138.3316  144.0450  162.4257 C.3     1  UNL1        0.1661
     40 C         139.4844  144.9267  162.0467 C.3     1  UNL1        0.0472
     41 C         137.7634  144.1081  163.8125 C.3     1  UNL1        0.0472
@<TRIPOS>BOND
     1    20    21    1
     2    21    19    1
     3    19    17    1
     4    17    18    2
     5    17    16    1
     6    16    11    1
     7    11    12   ar
     8    12    13   ar
     9    13    14   ar
    10    14     7    1
    11     7     8   am
    12     8     9    2
    13     8     1    1
    14     1     2   ar
    15     2     3   ar
    16     3    25    1
    17    25    26    1
    18    26    27   ar
    19    27    28   ar
    20    28    29   ar
    21    29    32    1
    22    32    33    2
    23    32    34    2
    24    32    35    1
    25    35    36    1
    26    35    37    1
    27    29    30   ar
    28    30    31   ar
    29     3     4   ar
    30     4     5   ar
    31     5    38    1
    32    38    39    1
    33    39    40    1
    34    39    41    1
    35     5     6   ar
    36    14    15   ar
    37    17    22    1
    38    22    23    1
    39    23    24    1
    40    15    11   ar
    41     6     1   ar
    42    31    26   ar
    43     7    10    1
@<TRIPOS>MOLECULE
*****
 41 43 0 0 0
SMALL
GASTEIGER

@<TRIPOS>ATOM
      1 C         142.0452  138.9469  159.6747 C.ar    1  UNL1        0.0597
      2 C         140.8227  139.3502  160.4445 C.ar    1  UNL1        0.0422
      3 C         140.9580  140.1854  161.6831 C.ar    1  UNL1        0.1485
      4 C         142.3159  140.6173  162.1518 C.ar    1  UNL1        0.0743
      5 C         143.5384  140.2140  161.3820 C.ar    1  UNL1        0.1416
      6 C         143.4030  139.3788  160.1434 C.ar    1  UNL1        0.0416
      7 N         143.1206  137.4639  157.8324 N.am    1  UNL1       -0.2644
      8 C         141.9099  138.1117  158.4360 C.2     1  UNL1        0.2508
      9 O         140.5639  137.9245  157.8011 O.2     1  UNL1       -0.2698
     10 H         144.0040  137.5868  158.2491 H       1  UNL1        0.1566
     11 N         142.8296  134.7205  155.1019 N.ar    1  UNL1       -0.2357
     12 C         142.7246  135.9665  154.2733 C.ar    1  UNL1        0.0988
     13 C         142.8208  137.1458  155.1953 C.ar    1  UNL1        0.0565
     14 C         142.9853  136.6287  156.5937 C.ar    1  UNL1        0.1557
     15 N         142.9907  135.1298  156.5360 N.ar    1  UNL1       -0.1534
     16 C         142.7818  133.3126  154.5870 C.3     1  UNL1        0.2423
     17 P         142.7123  132.1639  155.5491 P.3     1  UNL1        0.3677
     18 O         142.6429  131.0152  156.5112 O.2     1  UNL1       -0.2557
     19 O         141.2383  132.0431  155.2986 O.3     1  UNL1       -0.2928
     20 C         139.6234  130.0672  154.8112 C.3     1  UNL1        0.0352
     21 C         140.7200  130.9888  154.3660 C.3     1  UNL1        0.1515
     22 O         144.1864  132.2847  155.7996 O.3     1  UNL1       -0.2928
     23 C         144.8135  131.5565  156.9513 C.3     1  UNL1        0.1515
     24 C         145.5212  132.3243  158.0282 C.3     1  UNL1        0.0352
     25 O         139.7354  140.5887  162.4531 O.3     1  UNL1       -0.4534
     26 C         139.8021  140.7325  163.9447 C.ar    1  UNL1        0.1454
     27 C         139.8076  139.5118  164.8163 C.ar    1  UNL1        0.0388
     28 C         139.8743  139.6556  166.3080 C.ar    1  UNL1        0.0215
     29 C         139.9353  141.0202  166.9279 C.ar    1  UNL1        0.1058
     30 C         139.9298  142.2409  166.0562 C.ar    1  UNL1        0.0215
     31 C         139.8631  142.0970  164.5646 C.ar    1  UNL1        0.0388
     32 S         140.0019  141.1640  168.4195 S.O2    1  UNL1        0.0070
     33 O         139.3802  139.8081  168.5780 O.2     1  UNL1       -0.1687
     34 O         140.6237  142.5198  168.2610 O.2     1  UNL1       -0.1687
     35 C         140.0686  141.3078  169.9111 C.3     1  UNL1        0.1339
     36 C         140.3506  140.1096  170.7682 C.3     1  UNL1        0.0257
     37 C         139.8531  142.6499  170.5455 C.3     1  UNL1        0.0257
     38 O         144.8963  140.6458  161.8507 O.3     1  UNL1       -0.4791
     39 C         145.0485  141.9079  162.6469 C.3     1  UNL1        0.1661
     40 C         144.6570  143.2254  162.0463 C.3     1  UNL1        0.0472
     41 C         145.5924  141.8524  164.0438 C.3     1  UNL1        0.0472
@<TRIPOS>BOND
     1    20    21    1
     2    21    19    1
     3    19    17    1
     4    17    18    2
     5    17    16    1
     6    16    11    1
     7    11    12   ar
     8    12    13   ar
     9    13    14   ar
    10    14     7    1
    11     7     8   am
    12     8     9    2
    13     8     1    1
    14     1     2   ar
    15     2     3   ar
    16     3    25    1
    17    25    26    1
    18    26    27   ar
    19    27    28   ar
    20    28    29   ar
    21    29    32    1
    22    32    33    2
    23    32    34    2
    24    32    35    1
    25    35    36    1
    26    35    37    1
    27    29    30   ar
    28    30    31   ar
    29     3     4   ar
    30     4     5   ar
    31     5    38    1
    32    38    39    1
    33    39    40    1
    34    39    41    1
    35     5     6   ar
    36    14    15   ar
    37    17    22    1
    38    22    23    1
    39    23    24    1
    40    15    11   ar
    41     6     1   ar
    42    31    26   ar
    43     7    10    1
@<TRIPOS>MOLECULE
*****
 41 43 0 0 0
SMALL
GASTEIGER

@<TRIPOS>ATOM
      1 C         143.4180  140.9055  159.8344 C.ar    1  UNL1        0.0597
      2 C         144.1138  140.6189  161.1320 C.ar    1  UNL1        0.0422
      3 C         144.1861  141.6761  162.1936 C.ar    1  UNL1        0.1485
      4 C         143.5626  143.0198  161.9576 C.ar    1  UNL1        0.0743
      5 C         142.8668  143.3064  160.6601 C.ar    1  UNL1        0.1416
      6 C         142.7945  142.2492  159.5984 C.ar    1  UNL1        0.0416
      7 N         142.2632  138.8110  158.8196 N.am    1  UNL1       -0.2644
      8 C         143.3458  139.8482  158.7727 C.2     1  UNL1        0.2508
      9 O         144.3561  139.8283  157.6642 O.2     1  UNL1       -0.2698
     10 H         141.6001  138.8241  159.5472 H       1  UNL1        0.1566
     11 N         142.7157  135.8246  156.3820 N.ar    1  UNL1       -0.2357
     12 C         141.4435  136.4294  155.8663 C.ar    1  UNL1        0.0988
     13 C         141.1192  137.6218  156.7167 C.ar    1  UNL1        0.0565
     14 C         142.1909  137.7538  157.7579 C.ar    1  UNL1        0.1557
     15 N         143.1775  136.6431  157.5510 N.ar    1  UNL1       -0.1534
     16 C         143.4049  134.6139  155.8262 C.3     1  UNL1        0.2423
     17 P         142.7746  133.2602  155.9690 P.3     1  UNL1        0.3677
     18 O         142.1443  131.9066  156.1119 O.2     1  UNL1       -0.2557
     19 O         142.5255  133.2201  154.4904 O.3     1  UNL1       -0.2928
     20 C         140.9707  132.6500  152.4885 C.3     1  UNL1        0.0352
     21 C         141.2656  132.6039  153.9585 C.3     1  UNL1        0.1515
     22 O         143.0236  133.3004  157.4477 O.3     1  UNL1       -0.2928
     23 C         144.4248  133.2065  157.9751 C.3     1  UNL1        0.1515
     24 C         145.2518  131.9871  157.6940 C.3     1  UNL1        0.0352
     25 O         144.8819  141.3896  163.4913 O.3     1  UNL1       -0.4534
     26 C         144.0860  141.2579  164.7559 C.ar    1  UNL1        0.1454
     27 C         143.5350  139.9224  165.1596 C.ar    1  UNL1        0.0388
     28 C         142.7391  139.7907  166.4242 C.ar    1  UNL1        0.0215
     29 C         142.4942  140.9945  167.2851 C.ar    1  UNL1        0.1058
     30 C         143.0453  142.3299  166.8814 C.ar    1  UNL1        0.0215
     31 C         143.8412  142.4616  165.6168 C.ar    1  UNL1        0.0388
     32 S         141.6984  140.8628  168.5497 S.O2    1  UNL1        0.0070
     33 O         142.1929  139.4563  168.7144 O.2     1  UNL1       -0.1687
     34 O         141.2038  142.2693  168.3850 O.2     1  UNL1       -0.1687
     35 C         140.9025  140.7311  169.8143 C.3     1  UNL1        0.1339
     36 C         141.5778  140.8844  171.1449 C.3     1  UNL1        0.0257
     37 C         139.4313  140.4460  169.7483 C.3     1  UNL1        0.0257
     38 O         142.2433  144.6501  160.4241 O.3     1  UNL1       -0.4791
     39 C         140.7723  144.8435  160.6448 C.3     1  UNL1        0.1661
     40 C         140.2908  145.8072  161.6885 C.3     1  UNL1        0.0472
     41 C         139.7828  144.0732  159.8216 C.3     1  UNL1        0.0472
@<TRIPOS>BOND
     1    20    21    1
     2    21    19    1
     3    19    17    1
     4    17    18    2
     5    17    16    1
     6    16    11    1
     7    11    12   ar
     8    12    13   ar
     9    13    14   ar
    10    14     7    1
    11     7     8   am
    12     8     9    2
    13     8     1    1
    14     1     2   ar
    15     2     3   ar
    16     3    25    1
    17    25    26    1
    18    26    27   ar
    19    27    28   ar
    20    28    29   ar
    21    29    32    1
    22    32    33    2
    23    32    34    2
    24    32    35    1
    25    35    36    1
    26    35    37    1
    27    29    30   ar
    28    30    31   ar
    29     3     4   ar
    30     4     5   ar
    31     5    38    1
    32    38    39    1
    33    39    40    1
    34    39    41    1
    35     5     6   ar
    36    14    15   ar
    37    17    22    1
    38    22    23    1
    39    23    24    1
    40    15    11   ar
    41     6     1   ar
    42    31    26   ar
    43     7    10    1
@<TRIPOS>MOLECULE
*****
 41 43 0 0 0
SMALL
GASTEIGER

@<TRIPOS>ATOM
      1 C         139.7247  139.1777  159.7636 C.ar    1  UNL1        0.0597
      2 C         139.5701  138.3685  161.0171 C.ar    1  UNL1        0.0422
      3 C         138.9080  138.9700  162.2211 C.ar    1  UNL1        0.1485
      4 C         138.4005  140.3807  162.1717 C.ar    1  UNL1        0.0743
      5 C         138.5552  141.1899  160.9182 C.ar    1  UNL1        0.1416
      6 C         139.2173  140.5884  159.7142 C.ar    1  UNL1        0.0416
      7 N         139.6092  137.6731  157.6487 N.am    1  UNL1       -0.2644
      8 C         140.3869  138.5762  158.5594 C.2     1  UNL1        0.2508
      9 O         141.8267  138.8779  158.2662 O.2     1  UNL1       -0.2698
     10 H         138.6642  137.4751  157.8411 H       1  UNL1        0.1566
     11 N         141.7614  135.7707  155.0382 N.ar    1  UNL1       -0.2357
     12 C         140.8189  136.5216  154.1449 C.ar    1  UNL1        0.0988
     13 C         139.8980  137.3257  155.0141 C.ar    1  UNL1        0.0565
     14 C         140.2714  137.0716  156.4445 C.ar    1  UNL1        0.1557
     15 N         141.4230  136.1106  156.4594 N.ar    1  UNL1       -0.1534
     16 C         142.8510  134.8428  154.5891 C.3     1  UNL1        0.2423
     17 P         142.8576  133.4152  155.0496 P.3     1  UNL1        0.3677
     18 O         142.8643  131.9877  155.5101 O.2     1  UNL1       -0.2557
     19 O         141.6491  133.1372  154.2057 O.3     1  UNL1       -0.2928
     20 C         140.4215  130.9672  153.4752 C.3     1  UNL1        0.0352
     21 C         140.7568  131.9767  154.5327 C.3     1  UNL1        0.1515
     22 O         144.0662  133.6932  155.8936 O.3     1  UNL1       -0.2928
     23 C         144.0189  133.4530  157.3735 C.3     1  UNL1        0.1515
     24 C         145.0983  132.6511  158.0380 C.3     1  UNL1        0.0352
     25 O         138.7533  138.1608  163.4747 O.3     1  UNL1       -0.4534
     26 C         139.0773  138.7710  164.8060 C.ar    1  UNL1        0.1454
     27 C         138.1179  138.6275  165.9503 C.ar    1  UNL1        0.0388
     28 C         138.4419  139.2378  167.2817 C.ar    1  UNL1        0.0215
     29 C         139.7252  139.9916  167.4688 C.ar    1  UNL1        0.1058
     30 C         140.6845  140.1351  166.3246 C.ar    1  UNL1        0.0215
     31 C         140.3605  139.5248  164.9932 C.ar    1  UNL1        0.0388
     32 S         140.0492  140.6019  168.8002 S.O2    1  UNL1        0.0070
     33 O         138.8835  139.8838  169.4130 O.2     1  UNL1       -0.1687
     34 O         141.2149  141.3200  168.1874 O.2     1  UNL1       -0.1687
     35 C         140.3732  141.2122  170.1316 C.3     1  UNL1        0.1339
     36 C         141.3510  140.5380  171.0477 C.3     1  UNL1        0.0257
     37 C         139.7192  142.4967  170.5469 C.3     1  UNL1        0.0257
     38 O         138.0478  142.6006  160.8688 O.3     1  UNL1       -0.4791
     39 C         138.5599  143.6165  161.8463 C.3     1  UNL1        0.1661
     40 C         137.7143  144.0249  163.0160 C.3     1  UNL1        0.0472
     41 C         139.9179  144.2242  161.6541 C.3     1  UNL1        0.0472
@<TRIPOS>BOND
     1    20    21    1
     2    21    19    1
     3    19    17    1
     4    17    18    2
     5    17    16    1
     6    16    11    1
     7    11    12   ar
     8    12    13   ar
     9    13    14   ar
    10    14     7    1
    11     7     8   am
    12     8     9    2
    13     8     1    1
    14     1     2   ar
    15     2     3   ar
    16     3    25    1
    17    25    26    1
    18    26    27   ar
    19    27    28   ar
    20    28    29   ar
    21    29    32    1
    22    32    33    2
    23    32    34    2
    24    32    35    1
    25    35    36    1
    26    35    37    1
    27    29    30   ar
    28    30    31   ar
    29     3     4   ar
    30     4     5   ar
    31     5    38    1
    32    38    39    1
    33    39    40    1
    34    39    41    1
    35     5     6   ar
    36    14    15   ar
    37    17    22    1
    38    22    23    1
    39    23    24    1
    40    15    11   ar
    41     6     1   ar
    42    31    26   ar
    43     7    10    1
@<TRIPOS>MOLECULE
*****
 41 43 0 0 0
SMALL
GASTEIGER

@<TRIPOS>ATOM
      1 C         137.7000  141.8268  157.4867 C.ar    1  UNL1        0.0597
      2 C         136.6493  141.0747  156.7249 C.ar    1  UNL1        0.0422
      3 C         136.0403  141.6769  155.4935 C.ar    1  UNL1        0.1485
      4 C         136.4821  143.0313  155.0239 C.ar    1  UNL1        0.0743
      5 C         137.5328  143.7834  155.7856 C.ar    1  UNL1        0.1416
      6 C         138.1418  143.1811  157.0170 C.ar    1  UNL1        0.0416
      7 N         137.9640  139.8199  159.1154 N.am    1  UNL1       -0.2644
      8 C         138.3091  141.2245  158.7181 C.2     1  UNL1        0.2508
      9 O         139.2632  142.0269  159.5522 O.2     1  UNL1       -0.2698
     10 H         137.3377  139.2932  158.5680 H       1  UNL1        0.1566
     11 N         138.9389  138.5514  162.6518 N.ar    1  UNL1       -0.2357
     12 C         140.0817  138.0303  161.8317 C.ar    1  UNL1        0.0988
     13 C         139.8556  138.4421  160.4071 C.ar    1  UNL1        0.0565
     14 C         138.5730  139.2176  160.3469 C.ar    1  UNL1        0.1557
     15 N         138.0065  139.2851  161.7341 N.ar    1  UNL1       -0.1534
     16 C         138.7599  138.3704  164.1300 C.3     1  UNL1        0.2423
     17 P         139.4199  139.3183  165.0871 P.3     1  UNL1        0.3677
     18 O         140.0797  140.2662  166.0442 O.2     1  UNL1       -0.2557
     19 O         140.6065  138.4049  165.1735 O.3     1  UNL1       -0.2928
     20 C         143.0866  138.3591  165.9461 C.3     1  UNL1        0.0352
     21 C         141.9944  138.9714  165.1202 C.3     1  UNL1        0.1515
     22 O         138.2331  140.2317  165.0006 O.3     1  UNL1       -0.2928
     23 C         138.4266  141.6845  164.6815 C.3     1  UNL1        0.1515
     24 C         137.5306  142.3595  163.6857 C.3     1  UNL1        0.0352
     25 O         134.9896  140.9248  154.7317 O.3     1  UNL1       -0.4534
     26 C         133.7354  140.4801  155.4240 C.ar    1  UNL1        0.1454
     27 C         133.7112  139.1784  156.1691 C.ar    1  UNL1        0.0388
     28 C         132.4570  138.7337  156.8613 C.ar    1  UNL1        0.0215
     29 C         131.2270  139.5906  156.8084 C.ar    1  UNL1        0.1058
     30 C         131.2512  140.8922  156.0634 C.ar    1  UNL1        0.0215
     31 C         132.5054  141.3370  155.3711 C.ar    1  UNL1        0.0388
     32 S         129.9728  139.1459  157.5007 S.O2    1  UNL1        0.0070
     33 O         130.7891  138.3154  158.4462 O.2     1  UNL1       -0.1687
     34 O         129.1564  139.9764  156.5552 O.2     1  UNL1       -0.1687
     35 C         128.7186  138.7012  158.1929 C.3     1  UNL1        0.1339
     36 C         127.5676  139.6512  158.3432 C.3     1  UNL1        0.0257
     37 C         128.6154  137.3063  158.7349 C.3     1  UNL1        0.0257
     38 O         137.9745  145.1378  155.3160 O.3     1  UNL1       -0.4791
     39 C         139.3922  145.5795  155.5279 C.3     1  UNL1        0.1661
     40 C         139.7108  146.5982  156.5819 C.3     1  UNL1        0.0472
     41 C         140.4914  145.0026  154.6859 C.3     1  UNL1        0.0472
@<TRIPOS>BOND
     1    20    21    1
     2    21    19    1
     3    19    17    1
     4    17    18    2
     5    17    16    1
     6    16    11    1
     7    11    12   ar
     8    12    13   ar
     9    13    14   ar
    10    14     7    1
    11     7     8   am
    12     8     9    2
    13     8     1    1
    14     1     2   ar
    15     2     3   ar
    16     3    25    1
    17    25    26    1
    18    26    27   ar
    19    27    28   ar
    20    28    29   ar
    21    29    32    1
    22    32    33    2
    23    32    34    2
    24    32    35    1
    25    35    36    1
    26    35    37    1
    27    29    30   ar
    28    30    31   ar
    29     3     4   ar
    30     4     5   ar
    31     5    38    1
    32    38    39    1
    33    39    40    1
    34    39    41    1
    35     5     6   ar
    36    14    15   ar
    37    17    22    1
    38    22    23    1
    39    23    24    1
    40    15    11   ar
    41     6     1   ar
    42    31    26   ar
    43     7    10    1
@<TRIPOS>MOLECULE
*****
 41 43 0 0 0
SMALL
GASTEIGER

@<TRIPOS>ATOM
      1 C         143.5323  139.7203  159.4092 C.ar    1  UNL1        0.0597
      2 C         144.1944  139.6837  160.7546 C.ar    1  UNL1        0.0422
      3 C         144.6026  140.9621  161.4246 C.ar    1  UNL1        0.1485
      4 C         144.3488  142.2772  160.7491 C.ar    1  UNL1        0.0743
      5 C         143.6867  142.3138  159.4037 C.ar    1  UNL1        0.1416
      6 C         143.2784  141.0354  158.7337 C.ar    1  UNL1        0.0416
      7 N         143.1526  138.3368  157.2432 N.am    1  UNL1       -0.2644
      8 C         143.1239  138.4419  158.7392 C.2     1  UNL1        0.2508
      9 O         142.6870  137.2685  159.5652 O.2     1  UNL1       -0.2698
     10 H         143.4394  139.1069  156.7010 H       1  UNL1        0.1566
     11 N         142.8361  134.8877  155.4911 N.ar    1  UNL1       -0.2357
     12 C         141.3958  135.2943  155.5930 C.ar    1  UNL1        0.0988
     13 C         141.3391  136.6359  156.2618 C.ar    1  UNL1        0.0565
     14 C         142.7443  137.0583  156.5731 C.ar    1  UNL1        0.1557
     15 N         143.6695  135.9779  156.0969 N.ar    1  UNL1       -0.1534
     16 C         143.3523  133.6145  154.8892 C.3     1  UNL1        0.2423
     17 P         142.9201  132.2913  155.4482 P.3     1  UNL1        0.3677
     18 O         142.4878  130.9682  156.0071 O.2     1  UNL1       -0.2557
     19 O         143.6269  132.6035  156.7339 O.3     1  UNL1       -0.2928
     20 C         145.7129  132.3535  158.2622 C.3     1  UNL1        0.0352
     21 C         144.9243  131.9252  157.0603 C.3     1  UNL1        0.1515
     22 O         142.2132  131.9792  154.1625 O.3     1  UNL1       -0.2928
     23 C         140.7319  131.7430  154.1592 C.3     1  UNL1        0.1515
     24 C         140.0307  131.3960  152.8794 C.3     1  UNL1        0.0352
     25 O         145.2648  140.9256  162.7701 O.3     1  UNL1       -0.4534
     26 C         144.4397  140.7263  164.0068 C.ar    1  UNL1        0.1454
     27 C         143.9424  141.9142  164.7761 C.ar    1  UNL1        0.0388
     28 C         143.1173  141.7149  166.0129 C.ar    1  UNL1        0.0215
     29 C         142.7895  140.3277  166.4803 C.ar    1  UNL1        0.1058
     30 C         143.2868  139.1400  165.7110 C.ar    1  UNL1        0.0215
     31 C         144.1119  139.3392  164.4743 C.ar    1  UNL1        0.0388
     32 S         141.9645  140.1284  167.7171 S.O2    1  UNL1        0.0070
     33 O         143.0522  139.2799  168.3060 O.2     1  UNL1       -0.1687
     34 O         140.8768  140.9770  167.1281 O.2     1  UNL1       -0.1687
     35 C         141.1394  139.9292  168.9538 C.3     1  UNL1        0.1339
     36 C         141.7693  139.3652  170.1928 C.3     1  UNL1        0.0257
     37 C         139.6844  140.2939  168.9515 C.3     1  UNL1        0.0257
     38 O         143.4328  143.6288  158.7282 O.3     1  UNL1       -0.4791
     39 C         142.0724  144.2569  158.7967 C.3     1  UNL1        0.1661
     40 C         141.4408  144.8152  157.5560 C.3     1  UNL1        0.0472
     41 C         141.3435  144.3266  160.1059 C.3     1  UNL1        0.0472
@<TRIPOS>BOND
     1    20    21    1
     2    21    19    1
     3    19    17    1
     4    17    18    2
     5    17    16    1
     6    16    11    1
     7    11    12   ar
     8    12    13   ar
     9    13    14   ar
    10    14     7    1
    11     7     8   am
    12     8     9    2
    13     8     1    1
    14     1     2   ar
    15     2     3   ar
    16     3    25    1
    17    25    26    1
    18    26    27   ar
    19    27    28   ar
    20    28    29   ar
    21    29    32    1
    22    32    33    2
    23    32    34    2
    24    32    35    1
    25    35    36    1
    26    35    37    1
    27    29    30   ar
    28    30    31   ar
    29     3     4   ar
    30     4     5   ar
    31     5    38    1
    32    38    39    1
    33    39    40    1
    34    39    41    1
    35     5     6   ar
    36    14    15   ar
    37    17    22    1
    38    22    23    1
    39    23    24    1
    40    15    11   ar
    41     6     1   ar
    42    31    26   ar
    43     7    10    1
@<TRIPOS>MOLECULE
*****
 41 43 0 0 0
SMALL
GASTEIGER

@<TRIPOS>ATOM
      1 C         139.4152  140.1880  159.8421 C.ar    1  UNL1        0.0597
      2 C         139.0897  139.3122  161.0155 C.ar    1  UNL1        0.0422
      3 C         138.5696  139.9207  162.2840 C.ar    1  UNL1        0.1485
      4 C         138.3750  141.4050  162.3791 C.ar    1  UNL1        0.0743
      5 C         138.7006  142.2808  161.2057 C.ar    1  UNL1        0.1416
      6 C         139.2207  141.6723  159.9372 C.ar    1  UNL1        0.0416
      7 N         139.0022  138.8477  157.6551 N.am    1  UNL1       -0.2644
      8 C         139.9354  139.5795  158.5735 C.2     1  UNL1        0.2508
      9 O         141.3887  139.7029  158.2234 O.2     1  UNL1       -0.2698
     10 H         138.0483  138.7667  157.8849 H       1  UNL1        0.1566
     11 N         140.5906  136.7204  154.8235 N.ar    1  UNL1       -0.2357
     12 C         140.0548  137.8854  154.0451 C.ar    1  UNL1        0.0988
     13 C         139.3945  138.8241  155.0111 C.ar    1  UNL1        0.0565
     14 C         139.5223  138.2392  156.3865 C.ar    1  UNL1        0.1557
     15 N         140.2615  136.9391  156.2706 N.ar    1  UNL1       -0.1534
     16 C         141.3262  135.5435  154.2548 C.3     1  UNL1        0.2423
     17 P         142.5440  135.0123  154.9511 P.3     1  UNL1        0.3677
     18 O         143.7618  134.4811  155.6474 O.2     1  UNL1       -0.2557
     19 O         141.7914  133.7677  155.3180 O.3     1  UNL1       -0.2928
     20 C         142.0017  131.2044  155.6855 C.3     1  UNL1        0.0352
     21 C         142.5213  132.5947  155.9023 C.3     1  UNL1        0.1515
     22 O         143.2966  136.2569  154.5842 O.3     1  UNL1       -0.2928
     23 C         143.9978  137.0501  155.6468 C.3     1  UNL1        0.1515
     24 C         143.7688  138.5287  155.7530 C.3     1  UNL1        0.0352
     25 O         138.2440  139.0449  163.4575 O.3     1  UNL1       -0.4534
     26 C         138.8907  139.3007  164.7865 C.ar    1  UNL1        0.1454
     27 C         138.0878  139.1766  166.0476 C.ar    1  UNL1        0.0388
     28 C         138.7345  139.4325  167.3766 C.ar    1  UNL1        0.0215
     29 C         140.1841  139.8123  167.4446 C.ar    1  UNL1        0.1058
     30 C         140.9869  139.9363  166.1836 C.ar    1  UNL1        0.0215
     31 C         140.3402  139.6805  164.8546 C.ar    1  UNL1        0.0388
     32 S         140.8308  140.0681  168.7736 S.O2    1  UNL1        0.0070
     33 O         142.1346  140.3457  168.0858 O.2     1  UNL1       -0.1687
     34 O         139.5271  139.7906  169.4615 O.2     1  UNL1       -0.1687
     35 C         141.4775  140.3239  170.1027 C.3     1  UNL1        0.1339
     36 C         142.8477  139.7835  170.3864 C.3     1  UNL1        0.0257
     37 C         140.7540  141.1202  171.1480 C.3     1  UNL1        0.0257
     38 O         138.5061  143.7651  161.3008 O.3     1  UNL1       -0.4791
     39 C         139.6114  144.6344  161.8228 C.3     1  UNL1        0.1661
     40 C         140.7090  145.0843  160.9047 C.3     1  UNL1        0.0472
     41 C         139.6191  145.0540  163.2630 C.3     1  UNL1        0.0472
@<TRIPOS>BOND
     1    20    21    1
     2    21    19    1
     3    19    17    1
     4    17    18    2
     5    17    16    1
     6    16    11    1
     7    11    12   ar
     8    12    13   ar
     9    13    14   ar
    10    14     7    1
    11     7     8   am
    12     8     9    2
    13     8     1    1
    14     1     2   ar
    15     2     3   ar
    16     3    25    1
    17    25    26    1
    18    26    27   ar
    19    27    28   ar
    20    28    29   ar
    21    29    32    1
    22    32    33    2
    23    32    34    2
    24    32    35    1
    25    35    36    1
    26    35    37    1
    27    29    30   ar
    28    30    31   ar
    29     3     4   ar
    30     4     5   ar
    31     5    38    1
    32    38    39    1
    33    39    40    1
    34    39    41    1
    35     5     6   ar
    36    14    15   ar
    37    17    22    1
    38    22    23    1
    39    23    24    1
    40    15    11   ar
    41     6     1   ar
    42    31    26   ar
    43     7    10    1
