@<TRIPOS>MOLECULE
*****
 44 49 0 0 0
SMALL
GASTEIGER

@<TRIPOS>ATOM
      1 C         140.8487  141.9714  169.6198 C.ar    1  UNL1        0.0769
      2 C         140.8970  142.9105  168.4512 C.ar    1  UNL1        0.0065
      3 C         140.2697  142.5174  167.1467 C.ar    1  UNL1        0.0016
      4 C         139.5941  141.1851  167.0107 C.ar    1  UNL1        0.0191
      5 C         139.5458  140.2459  168.1793 C.ar    1  UNL1        0.0509
      6 C         140.1731  140.6391  169.4838 C.ar    1  UNL1        0.0211
      7 N         138.8154  139.0082  167.7494 N.am    1  UNL1       -0.2803
      8 C         138.4123  139.1824  166.3152 C.2     1  UNL1        0.2507
      9 O         137.6601  138.1862  165.4834 O.2     1  UNL1       -0.2698
     10 C         138.8936  140.5278  165.8586 C.2     1  UNL1        0.0682
     11 C         138.7070  141.1132  164.4902 C.2     1  UNL1        0.0527
     12 H         138.6327  138.2199  168.3102 H       1  UNL1        0.1552
     13 C         139.2462  142.4777  164.1782 C.ar    1  UNL1        0.0136
     14 C         140.6460  142.6309  163.6615 C.ar    1  UNL1        0.0012
     15 C         141.1852  143.9956  163.3495 C.ar    1  UNL1        0.0000
     16 C         140.3245  145.2069  163.5543 C.ar    1  UNL1        0.0000
     17 C         138.9247  145.0536  164.0710 C.ar    1  UNL1        0.0000
     18 C         138.3856  143.6891  164.3830 C.ar    1  UNL1        0.0012
     19 C         141.4760  142.3645  170.9244 C.2     1  UNL1        0.3414
     20 O         140.7162  142.1875  172.2055 O.2     1  UNL1       -0.2449
     21 C         143.9029  142.4174  169.9984 C.3     1  UNL1        0.2560
     22 O         142.8632  142.9347  170.9479 O.3     1  UNL1       -0.4413
     23 N         137.9812  140.3340  163.4337 N.pl3   1  UNL1       -0.3124
     24 H         137.0171  140.1580  163.5270 H       1  UNL1        0.1522
     25 C         138.7244  139.8232  162.2351 C.ar    1  UNL1        0.0484
     26 C         139.3682  138.4689  162.2729 C.ar    1  UNL1        0.0159
     27 C         140.1114  137.9580  161.0742 C.ar    1  UNL1        0.0162
     28 C         140.2108  138.8014  159.8378 C.ar    1  UNL1        0.0539
     29 C         139.5670  140.1557  159.8000 C.ar    1  UNL1        0.0162
     30 C         138.8239  140.6665  160.9986 C.ar    1  UNL1        0.0159
     31 N         140.9540  138.2905  158.6392 N.am    1  UNL1       -0.2589
     32 C         140.3721  138.0494  157.2778 C.2     1  UNL1        0.2294
     33 O         138.9450  138.2767  156.8761 O.2     1  UNL1       -0.2745
     34 C         141.4680  137.5409  156.3888 C.3     1  UNL1        0.0874
     35 C         142.7272  137.4678  157.2006 C.3     1  UNL1        0.0312
     36 C         142.4095  137.9311  158.5915 C.3     1  UNL1        0.0962
     37 C         143.3774  138.0194  159.7341 C.3     1  UNL1        0.0926
     38 N         143.6918  139.3508  160.3494 N.3     1  UNL1       -0.2689
     39 C         143.6314  140.5958  159.5149 C.3     1  UNL1        0.0897
     40 C         143.9459  141.9271  160.1303 C.3     1  UNL1        0.0897
     41 N         144.3207  142.0135  161.5802 N.3     1  UNL1       -0.2691
     42 C         144.6351  143.3449  162.1955 C.3     1  UNL1        0.0897
     43 C         144.3810  140.7685  162.4146 C.3     1  UNL1        0.0897
     44 C         144.0666  139.4372  161.7993 C.3     1  UNL1        0.0897
@<TRIPOS>BOND
     1    21    22    1
     2    22    19    1
     3    19    20    2
     4    19     1    1
     5     1     2   ar
     6     2     3   ar
     7     3     4   ar
     8     4     5   ar
     9     5     6   ar
    10     5     7    1
    11     7     8   am
    12     8     9    2
    13     8    10    1
    14    10    11    2
    15    11    23    1
    16    23    25    1
    17    25    26   ar
    18    26    27   ar
    19    27    28   ar
    20    28    31    1
    21    31    32   am
    22    32    33    2
    23    32    34    1
    24    34    35    1
    25    35    36    1
    26    36    37    1
    27    37    38    1
    28    38    39    1
    29    39    40    1
    30    40    41    1
    31    41    42    1
    32    41    43    1
    33    43    44    1
    34    28    29   ar
    35    29    30   ar
    36    11    13    1
    37    13    14   ar
    38    14    15   ar
    39    15    16   ar
    40    16    17   ar
    41    17    18   ar
    42     6     1   ar
    43    30    25   ar
    44    18    13   ar
    45    10     4    1
    46    36    31    1
    47    44    38    1
    48     7    12    1
    49    23    24    1
@<TRIPOS>MOLECULE
*****
 44 49 0 0 0
SMALL
GASTEIGER

@<TRIPOS>ATOM
      1 C         139.9237  140.1880  168.4556 C.ar    1  UNL1        0.0769
      2 C         141.2052  140.5677  167.7748 C.ar    1  UNL1        0.0065
      3 C         141.4308  140.1952  166.3394 C.ar    1  UNL1        0.0016
      4 C         140.3750  139.4431  165.5848 C.ar    1  UNL1        0.0191
      5 C         139.0935  139.0634  166.2656 C.ar    1  UNL1        0.0509
      6 C         138.8678  139.4359  167.7010 C.ar    1  UNL1        0.0211
      7 N         138.2416  138.3286  165.2734 N.am    1  UNL1       -0.2803
      8 C         138.9966  138.2541  163.9795 C.2     1  UNL1        0.2507
      9 O         138.5173  137.6048  162.7150 O.2     1  UNL1       -0.2698
     10 C         140.3152  138.9429  164.1719 C.2     1  UNL1        0.0682
     11 C         141.3859  139.1034  163.1337 C.2     1  UNL1        0.0527
     12 H         137.3444  137.9599  165.4419 H       1  UNL1        0.1552
     13 C         142.6590  139.8200  163.4738 C.ar    1  UNL1        0.0136
     14 C         142.7306  141.3144  163.3652 C.ar    1  UNL1        0.0012
     15 C         144.0038  142.0309  163.7053 C.ar    1  UNL1        0.0000
     16 C         145.2053  141.2531  164.1540 C.ar    1  UNL1        0.0000
     17 C         145.1337  139.7588  164.2626 C.ar    1  UNL1        0.0000
     18 C         143.8606  139.0423  163.9225 C.ar    1  UNL1        0.0012
     19 C         139.6980  140.5604  169.8910 C.2     1  UNL1        0.3414
     20 O         138.6745  139.8253  170.7045 O.2     1  UNL1       -0.2449
     21 C         140.0819  143.0955  170.3102 C.3     1  UNL1        0.2560
     22 O         140.4958  141.6680  170.5128 O.3     1  UNL1       -0.4413
     23 N         141.1835  138.5473  161.7554 N.pl3   1  UNL1       -0.3124
     24 H         141.4561  137.6233  161.5525 H       1  UNL1        0.1522
     25 C         140.5659  139.3990  160.6862 C.ar    1  UNL1        0.0484
     26 C         140.8515  139.1134  159.2416 C.ar    1  UNL1        0.0159
     27 C         140.2339  139.9651  158.1724 C.ar    1  UNL1        0.0162
     28 C         139.3307  141.1023  158.5477 C.ar    1  UNL1        0.0539
     29 C         139.0452  141.3879  159.9924 C.ar    1  UNL1        0.0162
     30 C         139.6628  140.5362  161.0615 C.ar    1  UNL1        0.0159
     31 N         138.7131  141.9540  157.4785 N.am    1  UNL1       -0.2589
     32 C         137.3788  141.7274  156.8318 C.2     1  UNL1        0.2294
     33 O         136.4278  140.6094  157.1408 O.2     1  UNL1       -0.2745
     34 C         137.1624  142.8152  155.8219 C.3     1  UNL1        0.0874
     35 C         138.3631  143.7141  155.8445 C.3     1  UNL1        0.0312
     36 C         139.3215  143.1818  156.8683 C.3     1  UNL1        0.0962
     37 C         140.6542  143.7735  157.2201 C.3     1  UNL1        0.0926
     38 N         140.9792  144.0931  158.6492 N.3     1  UNL1       -0.2689
     39 C         140.1535  145.0952  159.4002 C.3     1  UNL1        0.0897
     40 C         140.4786  145.4147  160.8293 C.3     1  UNL1        0.0897
     41 N         141.6293  144.7321  161.5074 N.3     1  UNL1       -0.2691
     42 C         141.9543  145.0516  162.9365 C.3     1  UNL1        0.0897
     43 C         142.4550  143.7300  160.7565 C.3     1  UNL1        0.0897
     44 C         142.1299  143.4104  159.3274 C.3     1  UNL1        0.0897
@<TRIPOS>BOND
     1    21    22    1
     2    22    19    1
     3    19    20    2
     4    19     1    1
     5     1     2   ar
     6     2     3   ar
     7     3     4   ar
     8     4     5   ar
     9     5     6   ar
    10     5     7    1
    11     7     8   am
    12     8     9    2
    13     8    10    1
    14    10    11    2
    15    11    23    1
    16    23    25    1
    17    25    26   ar
    18    26    27   ar
    19    27    28   ar
    20    28    31    1
    21    31    32   am
    22    32    33    2
    23    32    34    1
    24    34    35    1
    25    35    36    1
    26    36    37    1
    27    37    38    1
    28    38    39    1
    29    39    40    1
    30    40    41    1
    31    41    42    1
    32    41    43    1
    33    43    44    1
    34    28    29   ar
    35    29    30   ar
    36    11    13    1
    37    13    14   ar
    38    14    15   ar
    39    15    16   ar
    40    16    17   ar
    41    17    18   ar
    42     6     1   ar
    43    30    25   ar
    44    18    13   ar
    45    10     4    1
    46    36    31    1
    47    44    38    1
    48     7    12    1
    49    23    24    1
@<TRIPOS>MOLECULE
*****
 44 49 0 0 0
SMALL
GASTEIGER

@<TRIPOS>ATOM
      1 C         140.8098  141.9355  168.9277 C.ar    1  UNL1        0.0769
      2 C         141.9295  142.0136  167.9326 C.ar    1  UNL1        0.0065
      3 C         141.9087  141.1443  166.7104 C.ar    1  UNL1        0.0016
      4 C         140.7682  140.1968  166.4832 C.ar    1  UNL1        0.0191
      5 C         139.6486  140.1187  167.4783 C.ar    1  UNL1        0.0509
      6 C         139.6694  140.9880  168.7005 C.ar    1  UNL1        0.0211
      7 N         138.6648  139.0969  166.9899 N.am    1  UNL1       -0.2803
      8 C         139.1766  138.5436  165.6931 C.2     1  UNL1        0.2507
      9 O         138.5062  137.4947  164.8562 O.2     1  UNL1       -0.2698
     10 C         140.4766  139.2234  165.3799 C.2     1  UNL1        0.0682
     11 C         141.3343  138.9736  164.1750 C.2     1  UNL1        0.0527
     12 H         137.8299  138.8354  167.4414 H       1  UNL1        0.1552
     13 C         142.6150  139.7334  163.9954 C.ar    1  UNL1        0.0136
     14 C         142.6040  141.0732  163.3210 C.ar    1  UNL1        0.0012
     15 C         143.8848  141.8331  163.1414 C.ar    1  UNL1        0.0000
     16 C         145.1767  141.2531  163.6363 C.ar    1  UNL1        0.0000
     17 C         145.1877  139.9133  164.3107 C.ar    1  UNL1        0.0000
     18 C         143.9069  139.1535  164.4902 C.ar    1  UNL1        0.0012
     19 C         140.8306  142.8048  170.1499 C.2     1  UNL1        0.3414
     20 O         140.0297  144.0726  170.1822 O.2     1  UNL1       -0.2449
     21 C         142.1272  140.9907  171.4832 C.3     1  UNL1        0.2560
     22 O         141.6523  142.4063  171.3398 O.3     1  UNL1       -0.4413
     23 N         140.9113  137.9638  163.1496 N.pl3   1  UNL1       -0.3124
     24 H         140.3273  137.2146  163.4082 H       1  UNL1        0.1522
     25 C         141.3781  138.0956  161.7301 C.ar    1  UNL1        0.0484
     26 C         140.4842  138.7229  160.7018 C.ar    1  UNL1        0.0159
     27 C         140.9510  138.8546  159.2824 C.ar    1  UNL1        0.0162
     28 C         142.3117  138.3591  158.8912 C.ar    1  UNL1        0.0539
     29 C         143.2055  137.7318  159.9196 C.ar    1  UNL1        0.0162
     30 C         142.7388  137.6000  161.3390 C.ar    1  UNL1        0.0159
     31 N         142.7784  138.4908  157.4718 N.am    1  UNL1       -0.2589
     32 C         143.5404  139.6486  156.8981 C.2     1  UNL1        0.2294
     33 O         143.9694  140.8778  157.6431 O.2     1  UNL1       -0.2745
     34 C         143.7981  139.3612  155.4487 C.3     1  UNL1        0.0874
     35 C         143.1954  138.0260  155.1265 C.3     1  UNL1        0.0312
     36 C         142.5652  137.4880  156.3769 C.3     1  UNL1        0.0962
     37 C         141.8478  136.1774  156.5092 C.3     1  UNL1        0.0926
     38 N         142.6050  134.8902  156.3677 N.3     1  UNL1       -0.2689
     39 C         143.4858  134.4117  157.4836 C.3     1  UNL1        0.0897
     40 C         144.2429  133.1246  157.3421 C.3     1  UNL1        0.0897
     41 N         144.1194  132.3160  156.0848 N.3     1  UNL1       -0.2691
     42 C         144.8765  131.0289  155.9433 C.3     1  UNL1        0.0897
     43 C         143.2386  132.7945  154.9689 C.3     1  UNL1        0.0897
     44 C         142.4814  134.0817  155.1104 C.3     1  UNL1        0.0897
@<TRIPOS>BOND
     1    21    22    1
     2    22    19    1
     3    19    20    2
     4    19     1    1
     5     1     2   ar
     6     2     3   ar
     7     3     4   ar
     8     4     5   ar
     9     5     6   ar
    10     5     7    1
    11     7     8   am
    12     8     9    2
    13     8    10    1
    14    10    11    2
    15    11    23    1
    16    23    25    1
    17    25    26   ar
    18    26    27   ar
    19    27    28   ar
    20    28    31    1
    21    31    32   am
    22    32    33    2
    23    32    34    1
    24    34    35    1
    25    35    36    1
    26    36    37    1
    27    37    38    1
    28    38    39    1
    29    39    40    1
    30    40    41    1
    31    41    42    1
    32    41    43    1
    33    43    44    1
    34    28    29   ar
    35    29    30   ar
    36    11    13    1
    37    13    14   ar
    38    14    15   ar
    39    15    16   ar
    40    16    17   ar
    41    17    18   ar
    42     6     1   ar
    43    30    25   ar
    44    18    13   ar
    45    10     4    1
    46    36    31    1
    47    44    38    1
    48     7    12    1
    49    23    24    1
@<TRIPOS>MOLECULE
*****
 44 49 0 0 0
SMALL
GASTEIGER

@<TRIPOS>ATOM
      1 C         140.8279  141.9045  169.1147 C.ar    1  UNL1        0.0769
      2 C         141.9362  141.9169  168.1041 C.ar    1  UNL1        0.0065
      3 C         141.8856  140.9923  166.9240 C.ar    1  UNL1        0.0016
      4 C         140.7267  140.0552  166.7546 C.ar    1  UNL1        0.0191
      5 C         139.6184  140.0428  167.7652 C.ar    1  UNL1        0.0509
      6 C         139.6690  140.9674  168.9453 C.ar    1  UNL1        0.0211
      7 N         138.6117  139.0166  167.3366 N.am    1  UNL1       -0.2803
      8 C         139.0979  138.3950  166.0610 C.2     1  UNL1        0.2507
      9 O         138.3996  137.3201  165.2819 O.2     1  UNL1       -0.2698
     10 C         140.4050  139.0369  165.7013 C.2     1  UNL1        0.0682
     11 C         141.2433  138.7166  164.4994 C.2     1  UNL1        0.0527
     12 H         137.7782  138.7909  167.8095 H       1  UNL1        0.1552
     13 C         142.5343  139.4450  164.2696 C.ar    1  UNL1        0.0136
     14 C         143.8237  138.8610  164.7658 C.ar    1  UNL1        0.0012
     15 C         145.1147  139.5895  164.5360 C.ar    1  UNL1        0.0000
     16 C         145.1161  140.9021  163.8099 C.ar    1  UNL1        0.0000
     17 C         143.8267  141.4862  163.3137 C.ar    1  UNL1        0.0000
     18 C         142.5358  140.7577  163.5436 C.ar    1  UNL1        0.0012
     19 C         140.8786  142.8291  170.2948 C.2     1  UNL1        0.3414
     20 O         139.7624  143.8023  170.5335 O.2     1  UNL1       -0.2449
     21 C         143.3342  143.4540  170.8684 C.3     1  UNL1        0.2560
     22 O         142.0453  142.7805  171.2361 O.3     1  UNL1       -0.4413
     23 N         140.7907  137.6678  163.5272 N.pl3   1  UNL1       -0.3124
     24 H         140.7284  136.7273  163.8113 H       1  UNL1        0.1522
     25 C         140.4331  138.0520  162.1220 C.ar    1  UNL1        0.0484
     26 C         141.5092  138.1966  161.0871 C.ar    1  UNL1        0.0159
     27 C         141.1516  138.5809  159.6819 C.ar    1  UNL1        0.0162
     28 C         139.7180  138.8205  159.3116 C.ar    1  UNL1        0.0539
     29 C         138.6419  138.6759  160.3466 C.ar    1  UNL1        0.0162
     30 C         138.9995  138.2917  161.7517 C.ar    1  UNL1        0.0159
     31 N         139.3604  139.2047  157.9065 N.am    1  UNL1       -0.2589
     32 C         139.6577  138.4070  156.6715 C.2     1  UNL1        0.2294
     33 O         140.3649  137.0850  156.6248 O.2     1  UNL1       -0.2745
     34 C         139.1238  139.1634  155.4913 C.3     1  UNL1        0.0874
     35 C         138.4964  140.4286  155.9970 C.3     1  UNL1        0.0312
     36 C         138.6426  140.4541  157.4896 C.3     1  UNL1        0.0962
     37 C         138.1565  141.5387  158.4047 C.3     1  UNL1        0.0926
     38 N         139.1267  142.2653  159.2883 N.3     1  UNL1       -0.2689
     39 C         138.7780  142.5358  160.7220 C.3     1  UNL1        0.0897
     40 C         139.7482  143.2624  161.6056 C.3     1  UNL1        0.0897
     41 N         141.0670  143.7187  161.0555 N.3     1  UNL1       -0.2691
     42 C         142.0372  144.4454  161.9391 C.3     1  UNL1        0.0897
     43 C         141.4156  143.4483  159.6219 C.3     1  UNL1        0.0897
     44 C         140.4455  142.7216  158.7383 C.3     1  UNL1        0.0897
@<TRIPOS>BOND
     1    21    22    1
     2    22    19    1
     3    19    20    2
     4    19     1    1
     5     1     2   ar
     6     2     3   ar
     7     3     4   ar
     8     4     5   ar
     9     5     6   ar
    10     5     7    1
    11     7     8   am
    12     8     9    2
    13     8    10    1
    14    10    11    2
    15    11    23    1
    16    23    25    1
    17    25    26   ar
    18    26    27   ar
    19    27    28   ar
    20    28    31    1
    21    31    32   am
    22    32    33    2
    23    32    34    1
    24    34    35    1
    25    35    36    1
    26    36    37    1
    27    37    38    1
    28    38    39    1
    29    39    40    1
    30    40    41    1
    31    41    42    1
    32    41    43    1
    33    43    44    1
    34    28    29   ar
    35    29    30   ar
    36    11    13    1
    37    13    14   ar
    38    14    15   ar
    39    15    16   ar
    40    16    17   ar
    41    17    18   ar
    42     6     1   ar
    43    30    25   ar
    44    18    13   ar
    45    10     4    1
    46    36    31    1
    47    44    38    1
    48     7    12    1
    49    23    24    1
@<TRIPOS>MOLECULE
*****
 44 49 0 0 0
SMALL
GASTEIGER

@<TRIPOS>ATOM
      1 C         139.9708  140.5507  168.4260 C.ar    1  UNL1        0.0769
      2 C         141.2514  140.8510  167.7050 C.ar    1  UNL1        0.0065
      3 C         141.4726  140.3244  166.3180 C.ar    1  UNL1        0.0016
      4 C         140.4131  139.4974  165.6520 C.ar    1  UNL1        0.0191
      5 C         139.1326  139.1970  166.3730 C.ar    1  UNL1        0.0509
      6 C         138.9114  139.7237  167.7600 C.ar    1  UNL1        0.0211
      7 N         138.2764  138.3609  165.4685 N.am    1  UNL1       -0.2803
      8 C         139.0280  138.1445  164.1885 C.2     1  UNL1        0.2507
      9 O         138.5440  137.3629  163.0032 O.2     1  UNL1       -0.2698
     10 C         140.3485  138.8469  164.3019 C.2     1  UNL1        0.0682
     11 C         141.4169  138.8910  163.2500 C.2     1  UNL1        0.0527
     12 H         137.3789  138.0149  165.6781 H       1  UNL1        0.1552
     13 C         142.6924  139.6372  163.5073 C.ar    1  UNL1        0.0136
     14 C         142.7998  141.0878  163.1409 C.ar    1  UNL1        0.0012
     15 C         144.0755  141.8339  163.3982 C.ar    1  UNL1        0.0000
     16 C         145.2437  141.1293  164.0219 C.ar    1  UNL1        0.0000
     17 C         145.1363  139.6788  164.3883 C.ar    1  UNL1        0.0000
     18 C         143.8607  138.9327  164.1310 C.ar    1  UNL1        0.0012
     19 C         139.7497  141.0773  169.8130 C.2     1  UNL1        0.3414
     20 O         138.4532  140.8107  170.5186 O.2     1  UNL1       -0.2449
     21 C         140.9600  143.3395  170.2222 C.3     1  UNL1        0.2560
     22 O         140.8250  141.8706  170.4943 O.3     1  UNL1       -0.4413
     23 N         141.2097  138.1890  161.9407 N.pl3   1  UNL1       -0.3124
     24 H         140.8503  137.2726  161.9249 H       1  UNL1        0.1522
     25 C         141.5503  138.8832  160.6553 C.ar    1  UNL1        0.0484
     26 C         142.9082  138.7050  160.0435 C.ar    1  UNL1        0.0159
     27 C         143.2487  139.3992  158.7582 C.ar    1  UNL1        0.0162
     28 C         142.2314  140.2717  158.0846 C.ar    1  UNL1        0.0539
     29 C         140.8735  140.4500  158.6964 C.ar    1  UNL1        0.0162
     30 C         140.5330  139.7557  159.9818 C.ar    1  UNL1        0.0159
     31 N         142.5720  140.9659  156.7993 N.am    1  UNL1       -0.2589
     32 C         142.2432  140.4777  155.4196 C.2     1  UNL1        0.2294
     33 O         141.5163  139.2095  155.0829 O.2     1  UNL1       -0.2745
     34 C         142.7691  141.4802  154.4356 C.3     1  UNL1        0.0874
     35 C         143.4228  142.5881  155.2071 C.3     1  UNL1        0.0312
     36 C         143.3010  142.2702  156.6680 C.3     1  UNL1        0.0962
     37 C         143.8175  143.1093  157.7990 C.3     1  UNL1        0.0926
     38 N         142.8565  143.8203  158.7051 N.3     1  UNL1       -0.2689
     39 C         142.8043  143.4735  160.1635 C.3     1  UNL1        0.0897
     40 C         141.8433  144.1845  161.0696 C.3     1  UNL1        0.0897
     41 N         140.9345  145.2423  160.5173 N.3     1  UNL1       -0.2691
     42 C         139.9735  145.9533  161.4234 C.3     1  UNL1        0.0897
     43 C         140.9867  145.5891  159.0589 C.3     1  UNL1        0.0897
     44 C         141.9477  144.8781  158.1528 C.3     1  UNL1        0.0897
@<TRIPOS>BOND
     1    21    22    1
     2    22    19    1
     3    19    20    2
     4    19     1    1
     5     1     2   ar
     6     2     3   ar
     7     3     4   ar
     8     4     5   ar
     9     5     6   ar
    10     5     7    1
    11     7     8   am
    12     8     9    2
    13     8    10    1
    14    10    11    2
    15    11    23    1
    16    23    25    1
    17    25    26   ar
    18    26    27   ar
    19    27    28   ar
    20    28    31    1
    21    31    32   am
    22    32    33    2
    23    32    34    1
    24    34    35    1
    25    35    36    1
    26    36    37    1
    27    37    38    1
    28    38    39    1
    29    39    40    1
    30    40    41    1
    31    41    42    1
    32    41    43    1
    33    43    44    1
    34    28    29   ar
    35    29    30   ar
    36    11    13    1
    37    13    14   ar
    38    14    15   ar
    39    15    16   ar
    40    16    17   ar
    41    17    18   ar
    42     6     1   ar
    43    30    25   ar
    44    18    13   ar
    45    10     4    1
    46    36    31    1
    47    44    38    1
    48     7    12    1
    49    23    24    1
@<TRIPOS>MOLECULE
*****
 44 49 0 0 0
SMALL
GASTEIGER

@<TRIPOS>ATOM
      1 C         139.8277  140.6158  167.9553 C.ar    1  UNL1        0.0769
      2 C         140.1862  141.8261  167.1451 C.ar    1  UNL1        0.0065
      3 C         139.9551  141.8319  165.6630 C.ar    1  UNL1        0.0016
      4 C         139.3655  140.6274  164.9912 C.ar    1  UNL1        0.0191
      5 C         139.0070  139.4170  165.8014 C.ar    1  UNL1        0.0509
      6 C         139.2381  139.4113  167.2835 C.ar    1  UNL1        0.0211
      7 N         138.4456  138.3847  164.8691 N.am    1  UNL1       -0.2803
      8 C         138.4571  138.9570  163.4827 C.2     1  UNL1        0.2507
      9 O         137.9833  138.2649  162.2390 O.2     1  UNL1       -0.2698
     10 C         139.0257  140.3431  163.5581 C.2     1  UNL1        0.0682
     11 C         139.2202  141.2803  162.4032 C.2     1  UNL1        0.0527
     12 H         138.1257  137.4888  165.1227 H       1  UNL1        0.1552
     13 C         139.8037  142.6429  162.6331 C.ar    1  UNL1        0.0136
     14 C         138.9043  143.7995  162.9545 C.ar    1  UNL1        0.0012
     15 C         139.4879  145.1622  163.1844 C.ar    1  UNL1        0.0000
     16 C         140.9708  145.3681  163.0929 C.ar    1  UNL1        0.0000
     17 C         141.8703  144.2115  162.7716 C.ar    1  UNL1        0.0000
     18 C         141.2867  142.8489  162.5417 C.ar    1  UNL1        0.0012
     19 C         140.0588  140.6101  169.4374 C.2     1  UNL1        0.3414
     20 O         138.9697  140.1581  170.3645 O.2     1  UNL1       -0.2449
     21 C         142.6519  140.4541  169.4755 C.3     1  UNL1        0.2560
     22 O         141.3790  141.0562  169.9924 O.3     1  UNL1       -0.4413
     23 N         138.8313  140.8550  161.0184 N.pl3   1  UNL1       -0.3124
     24 H         137.8803  140.7909  160.7720 H       1  UNL1        0.1522
     25 C         139.8914  140.5273  160.0089 C.ar    1  UNL1        0.0484
     26 C         140.1045  141.4256  158.8267 C.ar    1  UNL1        0.0159
     27 C         141.1646  141.0979  157.8173 C.ar    1  UNL1        0.0162
     28 C         142.0115  139.8720  157.9900 C.ar    1  UNL1        0.0539
     29 C         141.7983  138.9738  159.1722 C.ar    1  UNL1        0.0162
     30 C         140.7383  139.3014  160.1817 C.ar    1  UNL1        0.0159
     31 N         143.0715  139.5444  156.9806 N.am    1  UNL1       -0.2589
     32 C         144.3662  140.2779  156.7919 C.2     1  UNL1        0.2294
     33 O         144.8283  141.4679  157.5796 O.2     1  UNL1       -0.2745
     34 C         145.1178  139.6125  155.6774 C.3     1  UNL1        0.0874
     35 C         144.2876  138.4678  155.1771 C.3     1  UNL1        0.0312
     36 C         143.0229  138.4256  155.9826 C.3     1  UNL1        0.0962
     37 C         141.9057  137.4382  155.8188 C.3     1  UNL1        0.0926
     38 N         142.1471  135.9817  156.0843 N.3     1  UNL1       -0.2689
     39 C         143.0901  135.5642  157.1736 C.3     1  UNL1        0.0897
     40 C         143.3315  134.1077  157.4391 C.3     1  UNL1        0.0897
     41 N         142.6300  133.0688  156.6154 N.3     1  UNL1       -0.2691
     42 C         142.8714  131.6123  156.8809 C.3     1  UNL1        0.0897
     43 C         141.6871  133.4863  155.5261 C.3     1  UNL1        0.0897
     44 C         141.4457  134.9428  155.2606 C.3     1  UNL1        0.0897
@<TRIPOS>BOND
     1    21    22    1
     2    22    19    1
     3    19    20    2
     4    19     1    1
     5     1     2   ar
     6     2     3   ar
     7     3     4   ar
     8     4     5   ar
     9     5     6   ar
    10     5     7    1
    11     7     8   am
    12     8     9    2
    13     8    10    1
    14    10    11    2
    15    11    23    1
    16    23    25    1
    17    25    26   ar
    18    26    27   ar
    19    27    28   ar
    20    28    31    1
    21    31    32   am
    22    32    33    2
    23    32    34    1
    24    34    35    1
    25    35    36    1
    26    36    37    1
    27    37    38    1
    28    38    39    1
    29    39    40    1
    30    40    41    1
    31    41    42    1
    32    41    43    1
    33    43    44    1
    34    28    29   ar
    35    29    30   ar
    36    11    13    1
    37    13    14   ar
    38    14    15   ar
    39    15    16   ar
    40    16    17   ar
    41    17    18   ar
    42     6     1   ar
    43    30    25   ar
    44    18    13   ar
    45    10     4    1
    46    36    31    1
    47    44    38    1
    48     7    12    1
    49    23    24    1
@<TRIPOS>MOLECULE
*****
 44 49 0 0 0
SMALL
GASTEIGER

@<TRIPOS>ATOM
      1 C         140.8286  140.5539  167.6448 C.ar    1  UNL1        0.0769
      2 C         141.7220  141.4710  166.8635 C.ar    1  UNL1        0.0065
      3 C         141.2647  142.0193  165.5443 C.ar    1  UNL1        0.0016
      4 C         139.9139  141.6504  165.0064 C.ar    1  UNL1        0.0191
      5 C         139.0205  140.7332  165.7878 C.ar    1  UNL1        0.0509
      6 C         139.4778  140.1850  167.1070 C.ar    1  UNL1        0.0211
      7 N         137.7515  140.5482  165.0095 N.am    1  UNL1       -0.2803
      8 C         137.8608  141.3511  163.7472 C.2     1  UNL1        0.2507
      9 O         136.8168  141.4546  162.6750 O.2     1  UNL1       -0.2698
     10 C         139.1972  142.0323  163.7453 C.2     1  UNL1        0.0682
     11 C         139.7243  142.9365  162.6709 C.2     1  UNL1        0.0527
     12 H         136.9821  139.9967  165.2798 H       1  UNL1        0.1552
     13 C         141.0868  143.5489  162.8076 C.ar    1  UNL1        0.0136
     14 C         141.2700  144.7976  163.6183 C.ar    1  UNL1        0.0012
     15 C         142.6326  145.4099  163.7550 C.ar    1  UNL1        0.0000
     16 C         143.8119  144.7735  163.0810 C.ar    1  UNL1        0.0000
     17 C         143.6287  143.5248  162.2703 C.ar    1  UNL1        0.0000
     18 C         142.2662  142.9125  162.1336 C.ar    1  UNL1        0.0012
     19 C         141.2859  140.0056  168.9640 C.2     1  UNL1        0.3414
     20 O         140.2774  139.5728  169.9865 O.2     1  UNL1       -0.2449
     21 C         143.2710  140.2413  170.6235 C.3     1  UNL1        0.2560
     22 O         142.7517  139.8902  169.2607 O.3     1  UNL1       -0.4413
     23 N         138.8890  143.2285  161.4597 N.pl3   1  UNL1       -0.3124
     24 H         138.1963  143.9271  161.4963 H       1  UNL1        0.1522
     25 C         139.1092  142.4562  160.1928 C.ar    1  UNL1        0.0484
     26 C         138.7088  141.0127  160.1152 C.ar    1  UNL1        0.0159
     27 C         138.9290  140.2403  158.8483 C.ar    1  UNL1        0.0162
     28 C         139.5496  140.9114  157.6590 C.ar    1  UNL1        0.0539
     29 C         139.9500  142.3549  157.7366 C.ar    1  UNL1        0.0162
     30 C         139.7298  143.1272  159.0035 C.ar    1  UNL1        0.0159
     31 N         139.7698  140.1391  156.3922 N.am    1  UNL1       -0.2589
     32 C         138.6991  139.6161  155.4810 C.2     1  UNL1        0.2294
     33 O         137.2204  139.7737  155.6767 O.2     1  UNL1       -0.2745
     34 C         139.3669  138.9079  154.3397 C.3     1  UNL1        0.0874
     35 C         140.8503  138.9932  154.5455 C.3     1  UNL1        0.0312
     36 C         141.0993  139.7541  155.8141 C.3     1  UNL1        0.0962
     37 C         142.4420  140.0739  156.4013 C.3     1  UNL1        0.0926
     38 N         142.7872  139.6041  157.7834 N.3     1  UNL1       -0.2689
     39 C         143.4550  140.5386  158.7482 C.3     1  UNL1        0.0897
     40 C         143.8003  140.0688  160.1303 C.3     1  UNL1        0.0897
     41 N         143.4777  138.6646  160.5476 N.3     1  UNL1       -0.2691
     42 C         143.8230  138.1948  161.9297 C.3     1  UNL1        0.0897
     43 C         142.8100  137.7301  159.5828 C.3     1  UNL1        0.0897
     44 C         142.4647  138.1999  158.2007 C.3     1  UNL1        0.0897
@<TRIPOS>BOND
     1    21    22    1
     2    22    19    1
     3    19    20    2
     4    19     1    1
     5     1     2   ar
     6     2     3   ar
     7     3     4   ar
     8     4     5   ar
     9     5     6   ar
    10     5     7    1
    11     7     8   am
    12     8     9    2
    13     8    10    1
    14    10    11    2
    15    11    23    1
    16    23    25    1
    17    25    26   ar
    18    26    27   ar
    19    27    28   ar
    20    28    31    1
    21    31    32   am
    22    32    33    2
    23    32    34    1
    24    34    35    1
    25    35    36    1
    26    36    37    1
    27    37    38    1
    28    38    39    1
    29    39    40    1
    30    40    41    1
    31    41    42    1
    32    41    43    1
    33    43    44    1
    34    28    29   ar
    35    29    30   ar
    36    11    13    1
    37    13    14   ar
    38    14    15   ar
    39    15    16   ar
    40    16    17   ar
    41    17    18   ar
    42     6     1   ar
    43    30    25   ar
    44    18    13   ar
    45    10     4    1
    46    36    31    1
    47    44    38    1
    48     7    12    1
    49    23    24    1
@<TRIPOS>MOLECULE
*****
 44 49 0 0 0
SMALL
GASTEIGER

@<TRIPOS>ATOM
      1 C         140.5247  140.8783  168.3547 C.ar    1  UNL1        0.0769
      2 C         140.4469  142.0455  167.4158 C.ar    1  UNL1        0.0065
      3 C         141.3450  142.1040  166.2158 C.ar    1  UNL1        0.0016
      4 C         142.3209  140.9953  165.9547 C.ar    1  UNL1        0.0191
      5 C         142.3987  139.8281  166.8935 C.ar    1  UNL1        0.0509
      6 C         141.5006  139.7696  168.0935 C.ar    1  UNL1        0.0211
      7 N         143.4518  138.8906  166.3814 N.am    1  UNL1       -0.2803
      8 C         144.0248  139.4785  165.1260 C.2     1  UNL1        0.2507
      9 O         145.1068  138.8721  164.2824 O.2     1  UNL1       -0.2698
     10 C         143.3258  140.7792  164.8623 C.2     1  UNL1        0.0682
     11 C         143.5862  141.7020  163.7087 C.2     1  UNL1        0.0527
     12 H         143.7198  138.0390  166.7964 H       1  UNL1        0.1552
     13 C         142.8044  142.9752  163.5754 C.ar    1  UNL1        0.0136
     14 C         143.3712  144.2617  164.0985 C.ar    1  UNL1        0.0012
     15 C         142.5894  145.5349  163.9652 C.ar    1  UNL1        0.0000
     16 C         141.2407  145.5215  163.3087 C.ar    1  UNL1        0.0000
     17 C         140.6738  144.2350  162.7857 C.ar    1  UNL1        0.0000
     18 C         141.4557  142.9619  162.9190 C.ar    1  UNL1        0.0012
     19 C         139.6266  140.8198  169.5547 C.2     1  UNL1        0.3414
     20 O         138.5119  139.8176  169.6091 O.2     1  UNL1       -0.2449
     21 C         141.1780  141.8219  171.3819 C.3     1  UNL1        0.2560
     22 O         139.8431  141.7636  170.7003 O.3     1  UNL1       -0.4413
     23 N         144.6283  141.3516  162.6884 N.pl3   1  UNL1       -0.3124
     24 H         145.5766  141.3062  162.9489 H       1  UNL1        0.1522
     25 C         144.2256  141.0702  161.2711 C.ar    1  UNL1        0.0484
     26 C         143.8319  139.6809  160.8650 C.ar    1  UNL1        0.0159
     27 C         143.4292  139.3996  159.4477 C.ar    1  UNL1        0.0162
     28 C         143.4201  140.5074  158.4365 C.ar    1  UNL1        0.0539
     29 C         143.8138  141.8967  158.8427 C.ar    1  UNL1        0.0162
     30 C         144.2165  142.1781  160.2599 C.ar    1  UNL1        0.0159
     31 N         143.0174  140.2261  157.0193 N.am    1  UNL1       -0.2589
     32 C         143.9055  139.6756  155.9430 C.2     1  UNL1        0.2294
     33 O         145.3522  139.3098  156.0951 O.2     1  UNL1       -0.2745
     34 C         143.0928  139.5551  154.6880 C.3     1  UNL1        0.0874
     35 C         141.7025  140.0311  154.9886 C.3     1  UNL1        0.0312
     36 C         141.6559  140.4458  156.4294 C.3     1  UNL1        0.0962
     37 C         140.4580  140.9855  157.1533 C.3     1  UNL1        0.0926
     38 N         140.0521  140.3992  158.4729 N.3     1  UNL1       -0.2689
     39 C         139.8898  141.2879  159.6703 C.3     1  UNL1        0.0897
     40 C         139.4839  140.7016  160.9900 C.3     1  UNL1        0.0897
     41 N         139.2403  139.2266  161.1123 N.3     1  UNL1       -0.2691
     42 C         138.8344  138.6402  162.4319 C.3     1  UNL1        0.0897
     43 C         139.4027  138.3379  159.9149 C.3     1  UNL1        0.0897
     44 C         139.8086  138.9242  158.5952 C.3     1  UNL1        0.0897
@<TRIPOS>BOND
     1    21    22    1
     2    22    19    1
     3    19    20    2
     4    19     1    1
     5     1     2   ar
     6     2     3   ar
     7     3     4   ar
     8     4     5   ar
     9     5     6   ar
    10     5     7    1
    11     7     8   am
    12     8     9    2
    13     8    10    1
    14    10    11    2
    15    11    23    1
    16    23    25    1
    17    25    26   ar
    18    26    27   ar
    19    27    28   ar
    20    28    31    1
    21    31    32   am
    22    32    33    2
    23    32    34    1
    24    34    35    1
    25    35    36    1
    26    36    37    1
    27    37    38    1
    28    38    39    1
    29    39    40    1
    30    40    41    1
    31    41    42    1
    32    41    43    1
    33    43    44    1
    34    28    29   ar
    35    29    30   ar
    36    11    13    1
    37    13    14   ar
    38    14    15   ar
    39    15    16   ar
    40    16    17   ar
    41    17    18   ar
    42     6     1   ar
    43    30    25   ar
    44    18    13   ar
    45    10     4    1
    46    36    31    1
    47    44    38    1
    48     7    12    1
    49    23    24    1
@<TRIPOS>MOLECULE
*****
 44 49 0 0 0
SMALL
GASTEIGER

@<TRIPOS>ATOM
      1 C         140.1003  140.6022  168.4428 C.ar    1  UNL1        0.0769
      2 C         141.3086  141.1020  167.7079 C.ar    1  UNL1        0.0065
      3 C         141.5183  140.7311  166.2696 C.ar    1  UNL1        0.0016
      4 C         140.5197  139.8605  165.5663 C.ar    1  UNL1        0.0191
      5 C         139.3113  139.3608  166.3012 C.ar    1  UNL1        0.0509
      6 C         139.1016  139.7317  167.7395 C.ar    1  UNL1        0.0211
      7 N         138.5046  138.5246  165.3524 N.am    1  UNL1       -0.2803
      8 C         139.2144  138.5076  164.0312 C.2     1  UNL1        0.2507
      9 O         138.7589  137.7908  162.7947 O.2     1  UNL1       -0.2698
     10 C         140.4598  139.3332  164.1634 C.2     1  UNL1        0.0682
     11 C         141.4683  139.5870  163.0824 C.2     1  UNL1        0.0527
     12 H         137.6579  138.0673  165.5604 H       1  UNL1        0.1552
     13 C         142.6711  140.4379  163.3635 C.ar    1  UNL1        0.0136
     14 C         143.9539  139.8000  163.8078 C.ar    1  UNL1        0.0012
     15 C         145.1567  140.6511  164.0889 C.ar    1  UNL1        0.0000
     16 C         145.0767  142.1401  163.9257 C.ar    1  UNL1        0.0000
     17 C         143.7939  142.7780  163.4813 C.ar    1  UNL1        0.0000
     18 C         142.5911  141.9269  163.2002 C.ar    1  UNL1        0.0012
     19 C         139.8906  140.9731  169.8810 C.2     1  UNL1        0.3414
     20 O         138.5461  140.7793  170.5172 O.2     1  UNL1       -0.2449
     21 C         142.1742  140.6586  171.0795 C.3     1  UNL1        0.2560
     22 O         141.0254  141.5379  170.6830 O.3     1  UNL1       -0.4413
     23 N         141.2739  138.9898  161.7202 N.pl3   1  UNL1       -0.3124
     24 H         141.6056  138.0829  161.5284 H       1  UNL1        0.1522
     25 C         140.5742  139.7743  160.6501 C.ar    1  UNL1        0.0484
     26 C         140.8517  139.4844  159.2048 C.ar    1  UNL1        0.0159
     27 C         140.1520  140.2690  158.1348 C.ar    1  UNL1        0.0162
     28 C         139.1748  141.3433  158.5100 C.ar    1  UNL1        0.0539
     29 C         138.8974  141.6332  159.9554 C.ar    1  UNL1        0.0162
     30 C         139.5971  140.8487  161.0254 C.ar    1  UNL1        0.0159
     31 N         138.4751  142.1279  157.4400 N.am    1  UNL1       -0.2589
     32 C         137.2414  141.7037  156.6998 C.2     1  UNL1        0.2294
     33 O         136.4907  140.4205  156.8996 O.2     1  UNL1       -0.2745
     34 C         136.8901  142.7880  155.7247 C.3     1  UNL1        0.0874
     35 C         137.9067  143.8823  155.8622 C.3     1  UNL1        0.0312
     36 C         138.8864  143.4743  156.9224 C.3     1  UNL1        0.0962
     37 C         140.0695  144.2726  157.3839 C.3     1  UNL1        0.0926
     38 N         141.4470  143.6836  157.3093 N.3     1  UNL1       -0.2689
     39 C         141.9574  143.1318  156.0112 C.3     1  UNL1        0.0897
     40 C         143.3349  142.5428  155.9366 C.3     1  UNL1        0.0897
     41 N         144.2020  142.5055  157.1600 N.3     1  UNL1       -0.2691
     42 C         145.5795  141.9165  157.0853 C.3     1  UNL1        0.0897
     43 C         143.6915  143.0573  158.4580 C.3     1  UNL1        0.0897
     44 C         142.3140  143.6463  158.5327 C.3     1  UNL1        0.0897
@<TRIPOS>BOND
     1    21    22    1
     2    22    19    1
     3    19    20    2
     4    19     1    1
     5     1     2   ar
     6     2     3   ar
     7     3     4   ar
     8     4     5   ar
     9     5     6   ar
    10     5     7    1
    11     7     8   am
    12     8     9    2
    13     8    10    1
    14    10    11    2
    15    11    23    1
    16    23    25    1
    17    25    26   ar
    18    26    27   ar
    19    27    28   ar
    20    28    31    1
    21    31    32   am
    22    32    33    2
    23    32    34    1
    24    34    35    1
    25    35    36    1
    26    36    37    1
    27    37    38    1
    28    38    39    1
    29    39    40    1
    30    40    41    1
    31    41    42    1
    32    41    43    1
    33    43    44    1
    34    28    29   ar
    35    29    30   ar
    36    11    13    1
    37    13    14   ar
    38    14    15   ar
    39    15    16   ar
    40    16    17   ar
    41    17    18   ar
    42     6     1   ar
    43    30    25   ar
    44    18    13   ar
    45    10     4    1
    46    36    31    1
    47    44    38    1
    48     7    12    1
    49    23    24    1
