@<TRIPOS>MOLECULE
*****
 35 38 0 0 0
SMALL
GASTEIGER

@<TRIPOS>ATOM
      1 C         138.1578  142.1464  158.0966 C.ar    1  UNL1        0.0690
      2 C         138.2512  141.8814  159.5701 C.ar    1  UNL1        0.0275
      3 C         139.1720  142.9037  160.1674 C.ar    1  UNL1        0.1140
      4 N         139.6478  143.8006  159.0632 N.ar    1  UNL1       -0.3223
      5 C         139.0209  143.3325  157.7833 C.ar    1  UNL1        0.0717
      6 C         139.3171  144.0469  156.4981 C.3     1  UNL1        0.1857
      7 O         140.2401  145.2292  156.4926 O.3     1  UNL1       -0.3454
      8 C         140.8669  145.6973  157.7725 C.3     1  UNL1        0.1671
      9 C         140.5707  144.9829  159.0578 C.3     1  UNL1        0.1379
     10 N         136.1741  142.0049  156.4247 N.am    1  UNL1       -0.2960
     11 C         137.3441  141.3629  157.1097 C.2     1  UNL1        0.2473
     12 O         137.7004  139.9376  156.8076 O.2     1  UNL1       -0.2701
     13 H         135.9402  142.9404  156.6230 H       1  UNL1        0.1501
     14 C         135.3604  141.2213  155.4378 C.3     1  UNL1        0.1306
     15 C         134.0758  140.5775  155.8681 C.ar    1  UNL1        0.1568
     16 N         134.0892  139.1999  156.4614 N.ar    1  UNL1       -0.2275
     17 C         132.8046  138.5560  156.8917 C.ar    1  UNL1        0.1019
     18 C         131.5065  139.2898  156.7287 C.ar    1  UNL1        0.0413
     19 C         131.4931  140.6675  156.1354 C.ar    1  UNL1        0.1019
     20 N         132.7777  141.3113  155.7051 N.ar    1  UNL1       -0.2275
     21 C         136.0418  139.7185  153.4311 C.3     1  UNL1        0.0022
     22 C         135.8315  141.0817  154.0205 C.3     1  UNL1        0.0274
     23 C         139.5507  143.0105  161.6149 C.2     1  UNL1        0.2619
     24 O         140.0837  141.8112  162.3412 O.2     1  UNL1       -0.2686
     25 N         139.3963  144.3167  162.3362 N.am    1  UNL1       -0.2975
     26 H         139.0464  145.1038  161.8596 H       1  UNL1        0.1500
     27 C         139.7749  144.4234  163.7837 C.3     1  UNL1        0.0945
     28 C         138.7311  144.7514  164.8097 C.3     1  UNL1        0.0262
     29 C         141.1974  144.2022  164.2051 C.ar    1  UNL1       -0.0044
     30 C         141.5410  143.0608  165.1157 C.ar    1  UNL1       -0.0004
     31 C         142.9634  142.8395  165.5371 C.ar    1  UNL1        0.0294
     32 C         144.0423  143.7597  165.0480 C.ar    1  UNL1        0.1401
     33 F         145.4648  143.5385  165.4694 F       1  UNL1       -0.2042
     34 C         143.6988  144.9011  164.1374 C.ar    1  UNL1        0.0294
     35 C         142.2763  145.1223  163.7160 C.ar    1  UNL1       -0.0004
@<TRIPOS>BOND
     1    21    22    1
     2    14    22    1
     3    14    10    1
     4    10    11   am
     5    11    12    2
     6    11     1    1
     7     1     2   ar
     8     2     3   ar
     9     3    23    1
    10    23    24    2
    11    23    25   am
    12    25    27    1
    13    27    28    1
    14    27    29    1
    15    29    30   ar
    16    30    31   ar
    17    31    32   ar
    18    32    33    1
    19    32    34   ar
    20    34    35   ar
    21     3     4   ar
    22     4     5   ar
    23     5     6    1
    24     6     7    1
    25     7     8    1
    26     8     9    1
    27    14    15    1
    28    15    16   ar
    29    16    17   ar
    30    17    18   ar
    31    18    19   ar
    32    19    20   ar
    33     5     1   ar
    34    20    15   ar
    35    35    29   ar
    36     9     4    1
    37    10    13    1
    38    25    26    1
@<TRIPOS>MOLECULE
*****
 35 38 0 0 0
SMALL
GASTEIGER

@<TRIPOS>ATOM
      1 C         138.4919  142.2936  158.5559 C.ar    1  UNL1        0.0690
      2 C         138.5536  142.2401  160.0537 C.ar    1  UNL1        0.0275
      3 C         139.4522  143.3467  160.5203 C.ar    1  UNL1        0.1140
      4 N         139.9459  144.0842  159.3110 N.ar    1  UNL1       -0.3223
      5 C         139.3523  143.4333  158.0969 C.ar    1  UNL1        0.0717
      6 C         139.6721  143.9624  156.7303 C.3     1  UNL1        0.1857
      7 O         140.5854  145.1425  156.5777 O.3     1  UNL1       -0.3454
      8 C         141.1789  145.7934  157.7918 C.3     1  UNL1        0.1671
      9 C         140.8592  145.2642  159.1585 C.3     1  UNL1        0.1379
     10 N         136.6304  141.9169  156.7829 N.am    1  UNL1       -0.2960
     11 C         137.7074  141.3696  157.6722 C.2     1  UNL1        0.2473
     12 O         137.9998  139.8985  157.6777 O.2     1  UNL1       -0.2701
     13 H         136.4384  142.8825  156.7793 H       1  UNL1        0.1501
     14 C         135.8459  140.9929  155.8993 C.3     1  UNL1        0.1306
     15 C         134.4657  140.5638  156.3002 C.ar    1  UNL1        0.1568
     16 N         133.2685  141.1497  155.6119 N.ar    1  UNL1       -0.2275
     17 C         131.8883  140.7206  156.0128 C.ar    1  UNL1        0.1019
     18 C         131.7051  139.7056  157.1019 C.ar    1  UNL1        0.0413
     19 C         132.9022  139.1197  157.7902 C.ar    1  UNL1        0.1019
     20 N         134.2825  139.5488  157.3893 N.ar    1  UNL1       -0.2275
     21 C         135.9315  139.2337  153.9894 C.3     1  UNL1        0.0022
     22 C         136.4418  140.4980  154.6148 C.3     1  UNL1        0.0274
     23 C         139.7967  143.6608  161.9460 C.2     1  UNL1        0.2619
     24 O         141.0420  144.4343  162.2638 O.2     1  UNL1       -0.2686
     25 N         138.8959  143.2015  163.0540 N.am    1  UNL1       -0.2975
     26 H         138.0785  142.6938  162.8455 H       1  UNL1        0.1500
     27 C         139.2404  143.5156  164.4797 C.3     1  UNL1        0.0945
     28 C         138.7301  144.7751  165.1145 C.3     1  UNL1        0.0262
     29 C         140.0952  142.5701  165.2706 C.ar    1  UNL1       -0.0044
     30 C         139.4896  141.3380  165.8747 C.ar    1  UNL1       -0.0004
     31 C         140.3444  140.3926  166.6656 C.ar    1  UNL1        0.0294
     32 C         141.8049  140.6793  166.8522 C.ar    1  UNL1        0.1401
     33 F         142.6597  139.7338  167.6430 F       1  UNL1       -0.2042
     34 C         142.4105  141.9114  166.2480 C.ar    1  UNL1        0.0294
     35 C         141.5557  142.8568  165.4572 C.ar    1  UNL1       -0.0004
@<TRIPOS>BOND
     1    21    22    1
     2    14    22    1
     3    14    10    1
     4    10    11   am
     5    11    12    2
     6    11     1    1
     7     1     2   ar
     8     2     3   ar
     9     3    23    1
    10    23    24    2
    11    23    25   am
    12    25    27    1
    13    27    28    1
    14    27    29    1
    15    29    30   ar
    16    30    31   ar
    17    31    32   ar
    18    32    33    1
    19    32    34   ar
    20    34    35   ar
    21     3     4   ar
    22     4     5   ar
    23     5     6    1
    24     6     7    1
    25     7     8    1
    26     8     9    1
    27    14    15    1
    28    15    16   ar
    29    16    17   ar
    30    17    18   ar
    31    18    19   ar
    32    19    20   ar
    33     5     1   ar
    34    20    15   ar
    35    35    29   ar
    36     9     4    1
    37    10    13    1
    38    25    26    1
@<TRIPOS>MOLECULE
*****
 35 38 0 0 0
SMALL
GASTEIGER

@<TRIPOS>ATOM
      1 C         141.8275  138.7105  160.4073 C.ar    1  UNL1        0.0690
      2 C         141.0087  138.2057  161.5582 C.ar    1  UNL1        0.0275
      3 C         141.4078  138.9740  162.7832 C.ar    1  UNL1        0.1140
      4 N         142.4733  139.9536  162.3893 N.ar    1  UNL1       -0.3223
      5 C         142.7327  139.7907  160.9209 C.ar    1  UNL1        0.0717
      6 C         143.7596  140.6471  160.2412 C.3     1  UNL1        0.1857
      7 O         144.5272  141.6663  161.0298 O.3     1  UNL1       -0.3454
      8 C         144.2678  141.8291  162.4982 C.3     1  UNL1        0.1671
      9 C         143.2409  140.9728  163.1780 C.3     1  UNL1        0.1379
     10 N         142.9541  137.5850  158.3544 N.am    1  UNL1       -0.2960
     11 C         141.7541  138.2210  158.9913 C.2     1  UNL1        0.2473
     12 O         140.4808  138.3675  158.2122 O.2     1  UNL1       -0.2701
     13 H         143.7899  137.4888  158.8657 H       1  UNL1        0.1501
     14 C         142.8806  137.0955  156.9384 C.3     1  UNL1        0.1306
     15 C         142.6673  135.6373  156.6590 C.ar    1  UNL1        0.1568
     16 N         141.6723  135.2102  155.6209 N.ar    1  UNL1       -0.2275
     17 C         141.4589  133.7520  155.3416 C.ar    1  UNL1        0.1019
     18 C         142.2405  132.7208  156.1003 C.ar    1  UNL1        0.0413
     19 C         143.2355  133.1479  157.1384 C.ar    1  UNL1        0.1019
     20 N         143.4489  134.6061  157.4178 N.ar    1  UNL1       -0.2275
     21 C         143.6490  139.4064  156.0336 C.3     1  UNL1        0.0022
     22 C         143.0206  138.0643  155.8018 C.3     1  UNL1        0.0274
     23 C         140.8410  138.7943  164.1603 C.2     1  UNL1        0.2619
     24 O         141.3988  137.7395  165.0692 O.2     1  UNL1       -0.2686
     25 N         139.7163  139.6695  164.6285 N.am    1  UNL1       -0.2975
     26 H         139.3501  140.3618  164.0320 H       1  UNL1        0.1500
     27 C         139.1494  139.4897  166.0056 C.3     1  UNL1        0.0945
     28 C         138.1794  138.3785  166.2781 C.3     1  UNL1        0.0262
     29 C         139.5526  140.4212  167.1101 C.ar    1  UNL1       -0.0044
     30 C         139.2670  140.0599  168.5376 C.ar    1  UNL1       -0.0004
     31 C         139.6701  140.9913  169.6421 C.ar    1  UNL1        0.0294
     32 C         140.3589  142.2841  169.3190 C.ar    1  UNL1        0.1401
     33 F         140.7621  143.2155  170.4235 F       1  UNL1       -0.2042
     34 C         140.6446  142.6454  167.8915 C.ar    1  UNL1        0.0294
     35 C         140.2414  141.7139  166.7870 C.ar    1  UNL1       -0.0004
@<TRIPOS>BOND
     1    21    22    1
     2    14    22    1
     3    14    10    1
     4    10    11   am
     5    11    12    2
     6    11     1    1
     7     1     2   ar
     8     2     3   ar
     9     3    23    1
    10    23    24    2
    11    23    25   am
    12    25    27    1
    13    27    28    1
    14    27    29    1
    15    29    30   ar
    16    30    31   ar
    17    31    32   ar
    18    32    33    1
    19    32    34   ar
    20    34    35   ar
    21     3     4   ar
    22     4     5   ar
    23     5     6    1
    24     6     7    1
    25     7     8    1
    26     8     9    1
    27    14    15    1
    28    15    16   ar
    29    16    17   ar
    30    17    18   ar
    31    18    19   ar
    32    19    20   ar
    33     5     1   ar
    34    20    15   ar
    35    35    29   ar
    36     9     4    1
    37    10    13    1
    38    25    26    1
@<TRIPOS>MOLECULE
*****
 35 38 0 0 0
SMALL
GASTEIGER

@<TRIPOS>ATOM
      1 C         141.4291  144.4592  161.1764 C.ar    1  UNL1        0.0690
      2 C         140.8078  145.2849  160.0891 C.ar    1  UNL1        0.0275
      3 C         141.4969  144.9480  158.8000 C.ar    1  UNL1        0.1140
      4 N         142.5442  143.9141  159.0907 N.ar    1  UNL1       -0.3223
      5 C         142.5023  143.6121  160.5593 C.ar    1  UNL1        0.0717
      6 C         143.4467  142.6046  161.1451 C.3     1  UNL1        0.1857
      7 O         144.4330  141.8993  160.2621 O.3     1  UNL1       -0.3454
      8 C         144.4749  142.2014  158.7935 C.3     1  UNL1        0.1671
      9 C         143.5305  143.2088  158.2077 C.3     1  UNL1        0.1379
     10 N         140.3370  143.3005  163.2294 N.am    1  UNL1       -0.2960
     11 C         141.0448  144.4775  162.6262 C.2     1  UNL1        0.2473
     12 O         141.3682  145.6726  163.4728 O.2     1  UNL1       -0.2701
     13 H         140.1247  142.5160  162.6737 H       1  UNL1        0.1501
     14 C         139.9527  143.3188  164.6792 C.3     1  UNL1        0.1306
     15 C         140.9417  142.8911  165.7227 C.ar    1  UNL1        0.1568
     16 N         140.4688  142.5203  167.0971 N.ar    1  UNL1       -0.2275
     17 C         141.4578  142.0927  168.1406 C.ar    1  UNL1        0.1019
     18 C         142.9197  142.0358  167.8098 C.ar    1  UNL1        0.0413
     19 C         143.3926  142.4065  166.4354 C.ar    1  UNL1        0.1019
     20 N         142.4036  142.8342  165.3919 N.ar    1  UNL1       -0.2275
     21 C         138.3906  145.0907  165.7608 C.3     1  UNL1        0.0022
     22 C         138.5794  143.7647  165.0854 C.3     1  UNL1        0.0274
     23 C         141.1923  145.5409  157.4563 C.2     1  UNL1        0.2619
     24 O         142.3114  145.9112  156.5288 O.2     1  UNL1       -0.2686
     25 N         139.7685  145.7634  157.0400 N.am    1  UNL1       -0.2975
     26 H         139.0339  145.5203  157.6487 H       1  UNL1        0.1500
     27 C         139.4639  146.3562  155.6962 C.3     1  UNL1        0.0945
     28 C         139.3862  145.4724  154.4867 C.3     1  UNL1        0.0262
     29 C         139.2369  147.8329  155.5619 C.ar    1  UNL1       -0.0044
     30 C         138.5505  148.5891  156.6605 C.ar    1  UNL1       -0.0004
     31 C         138.3236  150.0658  156.5262 C.ar    1  UNL1        0.0294
     32 C         138.7830  150.7861  155.2933 C.ar    1  UNL1        0.1401
     33 F         138.5561  152.2628  155.1590 F       1  UNL1       -0.2042
     34 C         139.4694  150.0299  154.1947 C.ar    1  UNL1        0.0294
     35 C         139.6964  148.5532  154.3290 C.ar    1  UNL1       -0.0004
@<TRIPOS>BOND
     1    21    22    1
     2    14    22    1
     3    14    10    1
     4    10    11   am
     5    11    12    2
     6    11     1    1
     7     1     2   ar
     8     2     3   ar
     9     3    23    1
    10    23    24    2
    11    23    25   am
    12    25    27    1
    13    27    28    1
    14    27    29    1
    15    29    30   ar
    16    30    31   ar
    17    31    32   ar
    18    32    33    1
    19    32    34   ar
    20    34    35   ar
    21     3     4   ar
    22     4     5   ar
    23     5     6    1
    24     6     7    1
    25     7     8    1
    26     8     9    1
    27    14    15    1
    28    15    16   ar
    29    16    17   ar
    30    17    18   ar
    31    18    19   ar
    32    19    20   ar
    33     5     1   ar
    34    20    15   ar
    35    35    29   ar
    36     9     4    1
    37    10    13    1
    38    25    26    1
@<TRIPOS>MOLECULE
*****
 35 38 0 0 0
SMALL
GASTEIGER

@<TRIPOS>ATOM
      1 C         138.1483  142.2807  157.5829 C.ar    1  UNL1        0.0690
      2 C         138.5701  142.0658  159.0062 C.ar    1  UNL1        0.0275
      3 C         139.5337  143.1551  159.3736 C.ar    1  UNL1        0.1140
      4 N         139.7074  144.0432  158.1773 N.ar    1  UNL1       -0.3223
      5 C         138.8512  143.5029  157.0706 C.ar    1  UNL1        0.0717
      6 C         138.8221  144.1934  155.7394 C.3     1  UNL1        0.1857
      7 O         139.6493  145.4244  155.5149 O.3     1  UNL1       -0.3454
      8 C         140.5056  145.9648  156.6216 C.3     1  UNL1        0.1671
      9 C         140.5346  145.2742  157.9528 C.3     1  UNL1        0.1379
     10 N         135.9488  142.0274  156.2233 N.am    1  UNL1       -0.2960
     11 C         137.1916  141.4240  156.8078 C.2     1  UNL1        0.2473
     12 O         137.4775  139.9640  156.6173 O.2     1  UNL1       -0.2701
     13 H         135.7611  142.9857  156.3484 H       1  UNL1        0.1501
     14 C         134.9921  141.1706  155.4483 C.3     1  UNL1        0.1306
     15 C         133.8492  140.4989  156.1501 C.ar    1  UNL1        0.1568
     16 N         132.4401  140.9320  155.8730 N.ar    1  UNL1       -0.2275
     17 C         131.2972  140.2603  156.5748 C.ar    1  UNL1        0.1019
     18 C         131.5634  139.1554  157.5538 C.ar    1  UNL1        0.0413
     19 C         132.9725  138.7223  157.8309 C.ar    1  UNL1        0.1019
     20 N         134.1154  139.3940  157.1291 N.ar    1  UNL1       -0.2275
     21 C         135.8538  139.7524  153.4495 C.3     1  UNL1        0.0022
     22 C         135.1783  140.9857  153.9715 C.3     1  UNL1        0.0274
     23 C         140.2056  143.3262  160.7037 C.2     1  UNL1        0.2619
     24 O         139.3905  143.3144  161.9628 O.2     1  UNL1       -0.2686
     25 N         141.6928  143.5092  160.7747 N.am    1  UNL1       -0.2975
     26 H         142.2278  143.5169  159.9483 H       1  UNL1        0.1500
     27 C         142.3647  143.6803  162.1048 C.3     1  UNL1        0.0945
     28 C         142.2193  144.9692  162.8581 C.3     1  UNL1        0.0262
     29 C         143.1820  142.5625  162.6816 C.ar    1  UNL1       -0.0044
     30 C         144.6527  142.7493  162.9101 C.ar    1  UNL1       -0.0004
     31 C         145.4699  141.6315  163.4868 C.ar    1  UNL1        0.0294
     32 C         144.8165  140.3270  163.8351 C.ar    1  UNL1        0.1401
     33 F         145.6338  139.2092  164.4118 F       1  UNL1       -0.2042
     34 C         143.3459  140.1402  163.6066 C.ar    1  UNL1        0.0294
     35 C         142.5286  141.2580  163.0299 C.ar    1  UNL1       -0.0004
@<TRIPOS>BOND
     1    21    22    1
     2    14    22    1
     3    14    10    1
     4    10    11   am
     5    11    12    2
     6    11     1    1
     7     1     2   ar
     8     2     3   ar
     9     3    23    1
    10    23    24    2
    11    23    25   am
    12    25    27    1
    13    27    28    1
    14    27    29    1
    15    29    30   ar
    16    30    31   ar
    17    31    32   ar
    18    32    33    1
    19    32    34   ar
    20    34    35   ar
    21     3     4   ar
    22     4     5   ar
    23     5     6    1
    24     6     7    1
    25     7     8    1
    26     8     9    1
    27    14    15    1
    28    15    16   ar
    29    16    17   ar
    30    17    18   ar
    31    18    19   ar
    32    19    20   ar
    33     5     1   ar
    34    20    15   ar
    35    35    29   ar
    36     9     4    1
    37    10    13    1
    38    25    26    1
@<TRIPOS>MOLECULE
*****
 35 38 0 0 0
SMALL
GASTEIGER

@<TRIPOS>ATOM
      1 C         142.3829  138.2456  158.2423 C.ar    1  UNL1        0.0690
      2 C         143.2364  138.7369  159.3737 C.ar    1  UNL1        0.0275
      3 C         142.3990  139.6433  160.2264 C.ar    1  UNL1        0.1140
      4 N         141.0278  139.7122  159.6220 N.ar    1  UNL1       -0.3223
      5 C         141.0179  138.8484  158.3958 C.ar    1  UNL1        0.0717
      6 C         139.7672  138.7223  157.5773 C.3     1  UNL1        0.1857
      7 O         138.5265  139.4600  157.9852 O.3     1  UNL1       -0.3454
      8 C         138.5365  140.3238  159.2114 C.3     1  UNL1        0.1671
      9 C         139.7871  140.4499  160.0299 C.3     1  UNL1        0.1379
     10 N         142.0359  136.0650  156.8731 N.am    1  UNL1       -0.2960
     11 C         142.8179  137.3150  157.1493 C.2     1  UNL1        0.2473
     12 O         144.0347  137.6341  156.3325 O.2     1  UNL1       -0.2701
     13 H         141.2372  135.8554  157.4092 H       1  UNL1        0.1501
     14 C         142.4709  135.1343  155.7801 C.3     1  UNL1        0.1306
     15 C         143.3011  133.9288  156.1077 C.ar    1  UNL1        0.1568
     16 N         143.9984  133.8358  157.4325 N.ar    1  UNL1       -0.2275
     17 C         144.8287  132.6303  157.7601 C.ar    1  UNL1        0.1019
     18 C         144.9617  131.5177  156.7629 C.ar    1  UNL1        0.0413
     19 C         144.2644  131.6107  155.4381 C.ar    1  UNL1        0.1019
     20 N         143.4341  132.8162  155.1104 N.ar    1  UNL1       -0.2275
     21 C         141.1596  136.5545  154.0442 C.3     1  UNL1        0.0022
     22 C         142.0756  135.4093  154.3595 C.3     1  UNL1        0.0274
     23 C         142.8529  140.3557  161.4659 C.2     1  UNL1        0.2619
     24 O         142.0534  141.5039  162.0065 O.2     1  UNL1       -0.2686
     25 N         144.1066  139.9199  162.1649 N.am    1  UNL1       -0.2975
     26 H         144.6314  139.1663  161.8101 H       1  UNL1        0.1500
     27 C         144.5606  140.6323  163.4044 C.3     1  UNL1        0.0945
     28 C         145.6317  141.6788  163.3182 C.3     1  UNL1        0.0262
     29 C         143.9433  140.2983  164.7301 C.ar    1  UNL1       -0.0044
     30 C         143.2862  141.3736  165.5437 C.ar    1  UNL1       -0.0004
     31 C         142.6690  141.0395  166.8694 C.ar    1  UNL1        0.0294
     32 C         142.7089  139.6302  167.3815 C.ar    1  UNL1        0.1401
     33 F         142.0917  139.2961  168.7071 F       1  UNL1       -0.2042
     34 C         143.3660  138.5549  166.5679 C.ar    1  UNL1        0.0294
     35 C         143.9832  138.8889  165.2422 C.ar    1  UNL1       -0.0004
@<TRIPOS>BOND
     1    21    22    1
     2    14    22    1
     3    14    10    1
     4    10    11   am
     5    11    12    2
     6    11     1    1
     7     1     2   ar
     8     2     3   ar
     9     3    23    1
    10    23    24    2
    11    23    25   am
    12    25    27    1
    13    27    28    1
    14    27    29    1
    15    29    30   ar
    16    30    31   ar
    17    31    32   ar
    18    32    33    1
    19    32    34   ar
    20    34    35   ar
    21     3     4   ar
    22     4     5   ar
    23     5     6    1
    24     6     7    1
    25     7     8    1
    26     8     9    1
    27    14    15    1
    28    15    16   ar
    29    16    17   ar
    30    17    18   ar
    31    18    19   ar
    32    19    20   ar
    33     5     1   ar
    34    20    15   ar
    35    35    29   ar
    36     9     4    1
    37    10    13    1
    38    25    26    1
@<TRIPOS>MOLECULE
*****
 35 38 0 0 0
SMALL
GASTEIGER

@<TRIPOS>ATOM
      1 C         141.6443  138.8653  160.2273 C.ar    1  UNL1        0.0690
      2 C         142.7564  139.5142  160.9968 C.ar    1  UNL1        0.0275
      3 C         142.2570  139.7981  162.3824 C.ar    1  UNL1        0.1140
      4 N         140.8363  139.3248  162.4693 N.ar    1  UNL1       -0.3223
      5 C         140.4576  138.7483  161.1373 C.ar    1  UNL1        0.0717
      6 C         139.0812  138.1912  160.9251 C.3     1  UNL1        0.1857
      7 O         138.0835  138.2106  162.0449 O.3     1  UNL1       -0.3454
      8 C         138.4621  138.7871  163.3769 C.3     1  UNL1        0.1671
      9 C         139.8386  139.3442  163.5891 C.3     1  UNL1        0.1379
     10 N         142.9102  137.6670  158.3006 N.am    1  UNL1       -0.2960
     11 C         141.7077  138.4130  158.7985 C.2     1  UNL1        0.2473
     12 O         140.5688  138.7065  157.8676 O.2     1  UNL1       -0.2701
     13 H         143.6577  137.4743  158.9116 H       1  UNL1        0.1501
     14 C         142.9736  137.2146  156.8718 C.3     1  UNL1        0.1306
     15 C         142.7674  135.7680  156.5333 C.ar    1  UNL1        0.1568
     16 N         143.7026  134.7295  157.0784 N.ar    1  UNL1       -0.2275
     17 C         143.4965  133.2828  156.7399 C.ar    1  UNL1        0.1019
     18 C         142.3552  132.8746  155.8563 C.ar    1  UNL1        0.0413
     19 C         141.4200  133.9130  155.3113 C.ar    1  UNL1        0.1019
     20 N         141.6261  135.3597  155.6498 N.ar    1  UNL1       -0.2275
     21 C         144.6074  138.2931  155.1639 C.3     1  UNL1        0.0022
     22 C         143.2431  138.2090  155.7817 C.3     1  UNL1        0.0274
     23 C         143.0408  140.4423  163.4873 C.2     1  UNL1        0.2619
     24 O         144.4599  140.0278  163.7406 O.2     1  UNL1       -0.2686
     25 N         142.4053  141.5011  164.3390 N.am    1  UNL1       -0.2975
     26 H         141.4738  141.7732  164.1728 H       1  UNL1        0.1500
     27 C         143.1890  142.1453  165.4439 C.3     1  UNL1        0.0945
     28 C         144.0774  143.3172  165.1485 C.3     1  UNL1        0.0262
     29 C         143.0843  141.6176  166.8441 C.ar    1  UNL1       -0.0044
     30 C         142.6497  140.2017  167.0814 C.ar    1  UNL1       -0.0004
     31 C         142.5449  139.6740  168.4816 C.ar    1  UNL1        0.0294
     32 C         142.8748  140.5621  169.6445 C.ar    1  UNL1        0.1401
     33 F         142.7701  140.0344  171.0447 F       1  UNL1       -0.2042
     34 C         143.3094  141.9780  169.4072 C.ar    1  UNL1        0.0294
     35 C         143.4141  142.5058  168.0070 C.ar    1  UNL1       -0.0004
@<TRIPOS>BOND
     1    21    22    1
     2    14    22    1
     3    14    10    1
     4    10    11   am
     5    11    12    2
     6    11     1    1
     7     1     2   ar
     8     2     3   ar
     9     3    23    1
    10    23    24    2
    11    23    25   am
    12    25    27    1
    13    27    28    1
    14    27    29    1
    15    29    30   ar
    16    30    31   ar
    17    31    32   ar
    18    32    33    1
    19    32    34   ar
    20    34    35   ar
    21     3     4   ar
    22     4     5   ar
    23     5     6    1
    24     6     7    1
    25     7     8    1
    26     8     9    1
    27    14    15    1
    28    15    16   ar
    29    16    17   ar
    30    17    18   ar
    31    18    19   ar
    32    19    20   ar
    33     5     1   ar
    34    20    15   ar
    35    35    29   ar
    36     9     4    1
    37    10    13    1
    38    25    26    1
@<TRIPOS>MOLECULE
*****
 35 38 0 0 0
SMALL
GASTEIGER

@<TRIPOS>ATOM
      1 C         139.1397  142.8932  159.6276 C.ar    1  UNL1        0.0690
      2 C         138.1631  141.8921  159.0854 C.ar    1  UNL1        0.0275
      3 C         137.9844  142.1649  157.6213 C.ar    1  UNL1        0.1140
      4 N         138.8507  143.3346  157.2586 N.ar    1  UNL1       -0.3223
      5 C         139.5647  143.7847  158.4986 C.ar    1  UNL1        0.0717
      6 C         140.5096  144.9481  158.4394 C.3     1  UNL1        0.1857
      7 O         140.7404  145.6615  157.1403 O.3     1  UNL1       -0.3454
      8 C         140.0264  145.2113  155.9003 C.3     1  UNL1        0.1671
      9 C         139.0816  144.0479  155.9594 C.3     1  UNL1        0.1379
     10 N         139.5660  144.3022  161.7685 N.am    1  UNL1       -0.2960
     11 C         139.6090  142.9865  161.0492 C.2     1  UNL1        0.2473
     12 O         140.1213  141.7643  161.7517 O.2     1  UNL1       -0.2701
     13 H         139.2298  145.1045  161.3074 H       1  UNL1        0.1501
     14 C         140.0353  144.3955  163.1901 C.3     1  UNL1        0.1306
     15 C         141.4758  144.1415  163.5226 C.ar    1  UNL1        0.1568
     16 N         142.5569  144.6745  162.6298 N.ar    1  UNL1       -0.2275
     17 C         143.9973  144.4205  162.9623 C.ar    1  UNL1        0.1019
     18 C         144.3567  143.6335  164.1876 C.ar    1  UNL1        0.0413
     19 C         143.2756  143.1004  165.0804 C.ar    1  UNL1        0.1019
     20 N         141.8351  143.3544  164.7479 N.ar    1  UNL1       -0.2275
     21 C         137.7543  144.0181  164.3751 C.3     1  UNL1        0.0022
     22 C         139.0641  144.7428  164.2792 C.3     1  UNL1        0.0274
     23 C         137.0956  141.4020  156.6843 C.2     1  UNL1        0.2619
     24 O         137.4012  139.9698  156.3598 O.2     1  UNL1       -0.2686
     25 N         135.9010  142.0713  156.0718 N.am    1  UNL1       -0.2975
     26 H         135.7004  143.0113  156.2848 H       1  UNL1        0.1500
     27 C         135.0122  141.3084  155.1348 C.3     1  UNL1        0.0945
     28 C         135.3650  141.2093  153.6803 C.3     1  UNL1        0.0262
     29 C         133.7706  140.6446  155.6524 C.ar    1  UNL1       -0.0044
     30 C         133.8403  139.2533  156.2086 C.ar    1  UNL1       -0.0004
     31 C         132.5987  138.5895  156.7262 C.ar    1  UNL1        0.0294
     32 C         131.2875  139.3171  156.6875 C.ar    1  UNL1        0.1401
     33 F         130.0459  138.6533  157.2050 F       1  UNL1       -0.2042
     34 C         131.2178  140.7083  156.1312 C.ar    1  UNL1        0.0294
     35 C         132.4594  141.3721  155.6136 C.ar    1  UNL1       -0.0004
@<TRIPOS>BOND
     1    21    22    1
     2    14    22    1
     3    14    10    1
     4    10    11   am
     5    11    12    2
     6    11     1    1
     7     1     2   ar
     8     2     3   ar
     9     3    23    1
    10    23    24    2
    11    23    25   am
    12    25    27    1
    13    27    28    1
    14    27    29    1
    15    29    30   ar
    16    30    31   ar
    17    31    32   ar
    18    32    33    1
    19    32    34   ar
    20    34    35   ar
    21     3     4   ar
    22     4     5   ar
    23     5     6    1
    24     6     7    1
    25     7     8    1
    26     8     9    1
    27    14    15    1
    28    15    16   ar
    29    16    17   ar
    30    17    18   ar
    31    18    19   ar
    32    19    20   ar
    33     5     1   ar
    34    20    15   ar
    35    35    29   ar
    36     9     4    1
    37    10    13    1
    38    25    26    1
@<TRIPOS>MOLECULE
*****
 35 38 0 0 0
SMALL
GASTEIGER

@<TRIPOS>ATOM
      1 C         141.2157  138.1914  158.1977 C.ar    1  UNL1        0.0690
      2 C         141.4783  138.3131  159.6695 C.ar    1  UNL1        0.0275
      3 C         140.4227  139.2025  160.2567 C.ar    1  UNL1        0.1140
      4 N         139.5077  139.6305  159.1477 N.ar    1  UNL1       -0.3223
      5 C         139.9978  139.0056  157.8752 C.ar    1  UNL1        0.0717
      6 C         139.2719  139.2587  156.5873 C.3     1  UNL1        0.1857
      7 O         138.0558  140.1367  156.5718 O.3     1  UNL1       -0.3454
      8 C         137.5657  140.7615  157.8444 C.3     1  UNL1        0.1671
      9 C         138.2916  140.5084  159.1323 C.3     1  UNL1        0.1379
     10 N         141.4446  136.1694  156.5824 N.am    1  UNL1       -0.2960
     11 C         142.0283  137.3954  157.2200 C.2     1  UNL1        0.2473
     12 O         143.4245  137.8251  156.8798 O.2     1  UNL1       -0.2701
     13 H         140.5282  135.8873  156.8056 H       1  UNL1        0.1501
     14 C         142.2572  135.3733  155.6047 C.3     1  UNL1        0.1306
     15 C         143.1056  134.2341  156.0867 C.ar    1  UNL1        0.1568
     16 N         143.6671  134.2532  157.4775 N.ar    1  UNL1       -0.2275
     17 C         144.5155  133.1140  157.9596 C.ar    1  UNL1        0.1019
     18 C         144.8025  131.9557  157.0508 C.ar    1  UNL1        0.0413
     19 C         144.2410  131.9366  155.6600 C.ar    1  UNL1        0.1019
     20 N         143.3926  133.0758  155.1779 N.ar    1  UNL1       -0.2275
     21 C         140.9064  135.8155  153.4299 C.3     1  UNL1        0.0022
     22 C         142.2213  135.7165  154.1449 C.3     1  UNL1        0.0274
     23 C         140.3030  139.5950  161.6994 C.2     1  UNL1        0.2619
     24 O         141.4499  140.2709  162.3905 O.2     1  UNL1       -0.2686
     25 N         139.0363  139.3115  162.4513 N.am    1  UNL1       -0.2975
     26 H         138.2834  138.8679  161.9978 H       1  UNL1        0.1500
     27 C         138.9166  139.7041  163.8941 C.3     1  UNL1        0.0945
     28 C         138.8644  138.6470  164.9570 C.3     1  UNL1        0.0262
     29 C         138.8492  141.1536  164.2739 C.ar    1  UNL1       -0.0044
     30 C         139.8405  141.7210  165.2463 C.ar    1  UNL1       -0.0004
     31 C         139.7731  143.1705  165.6261 C.ar    1  UNL1        0.0294
     32 C         138.7144  144.0527  165.0335 C.ar    1  UNL1        0.1401
     33 F         138.6471  145.5022  165.4133 F       1  UNL1       -0.2042
     34 C         137.7232  143.4853  164.0611 C.ar    1  UNL1        0.0294
     35 C         137.7906  142.0358  163.6813 C.ar    1  UNL1       -0.0004
@<TRIPOS>BOND
     1    21    22    1
     2    14    22    1
     3    14    10    1
     4    10    11   am
     5    11    12    2
     6    11     1    1
     7     1     2   ar
     8     2     3   ar
     9     3    23    1
    10    23    24    2
    11    23    25   am
    12    25    27    1
    13    27    28    1
    14    27    29    1
    15    29    30   ar
    16    30    31   ar
    17    31    32   ar
    18    32    33    1
    19    32    34   ar
    20    34    35   ar
    21     3     4   ar
    22     4     5   ar
    23     5     6    1
    24     6     7    1
    25     7     8    1
    26     8     9    1
    27    14    15    1
    28    15    16   ar
    29    16    17   ar
    30    17    18   ar
    31    18    19   ar
    32    19    20   ar
    33     5     1   ar
    34    20    15   ar
    35    35    29   ar
    36     9     4    1
    37    10    13    1
    38    25    26    1
