@<TRIPOS>MOLECULE
*****
 36 41 0 0 0
SMALL
GASTEIGER

@<TRIPOS>ATOM
      1 C         141.0635  142.2490  161.9335 C.ar    1  UNL1        0.1472
      2 N         141.8102  143.0233  160.8881 N.ar    1  UNL1       -0.2248
      3 C         142.7590  142.3163  159.9661 C.ar    1  UNL1        0.1260
      4 C         143.6275  142.8110  158.8476 C.ar    1  UNL1        0.1212
      5 N         144.3663  141.6356  158.2799 N.ar    1  UNL1       -0.2265
      6 N         143.9544  140.4144  159.0474 N.ar    1  UNL1       -0.1586
      7 C         142.9610  140.8351  160.0895 C.ar    1  UNL1        0.1762
      8 C         142.2143  140.0609  161.1350 C.ar    1  UNL1        0.2829
      9 O         142.4163  138.5797  161.2584 O.2     1  UNL1       -0.2652
     10 N         141.2655  140.7678  162.0570 N.ar    1  UNL1       -0.2792
     11 C         138.1747  142.5397  161.1783 C.3     1  UNL1        0.0522
     12 C         138.6703  143.1013  162.4780 C.ar    1  UNL1        0.0623
     13 N         137.7216  143.8083  163.4000 N.ar    1  UNL1       -0.2480
     14 C         138.2172  144.3698  164.6996 C.ar    1  UNL1        0.0984
     15 C         139.6616  144.2245  165.0772 C.ar    1  UNL1        0.0208
     16 C         140.6103  143.5175  164.1552 C.ar    1  UNL1        0.0058
     17 C         140.1147  142.9559  162.8556 C.ar    1  UNL1        0.0478
     18 C         145.3452  141.6744  157.1439 C.ar    1  UNL1        0.0829
     19 C         145.0774  140.8867  155.8958 C.ar    1  UNL1        0.0191
     20 C         146.0564  140.9256  154.7600 C.ar    1  UNL1        0.0015
     21 C         147.3031  141.7521  154.8722 C.ar    1  UNL1        0.0001
     22 C         147.5708  142.5398  156.1203 C.ar    1  UNL1        0.0015
     23 C         146.5919  142.5009  157.2562 C.ar    1  UNL1        0.0191
     24 C         140.5188  139.9935  163.1024 C.3     1  UNL1        0.1119
     25 C         141.1035  139.8282  164.4738 C.3     1  UNL1        0.0388
     26 C         142.5515  139.4706  164.6337 C.3     1  UNL1        0.0048
     27 C         143.1362  139.3053  166.0050 C.3     1  UNL1        0.0174
     28 C         142.2730  139.4977  167.2166 C.3     1  UNL1        0.0722
     29 N         140.8251  139.8554  167.0568 N.3     1  UNL1       -0.2706
     30 C         140.2404  140.0206  165.6853 C.3     1  UNL1        0.0741
     31 C         139.9619  140.0477  168.2684 C.3     1  UNL1        0.1020
     32 C         140.0112  141.3409  169.0267 C.3     1  UNL1        0.1312
     33 C         140.6634  142.6100  168.5641 C.3     1  UNL1        0.0336
     34 C         140.4722  143.6456  169.6323 C.3     1  UNL1        0.0346
     35 C         139.7019  143.0165  170.7552 C.3     1  UNL1        0.1422
     36 O         139.4169  141.5921  170.3809 O.3     1  UNL1       -0.3548
@<TRIPOS>BOND
     1    11    12    1
     2    12    13   ar
     3    13    14   ar
     4    14    15   ar
     5    15    16   ar
     6    16    17   ar
     7    17     1    1
     8     1     2   ar
     9     2     3   ar
    10     3     4   ar
    11     4     5   ar
    12     5    18    1
    13    18    19   ar
    14    19    20   ar
    15    20    21   ar
    16    21    22   ar
    17    22    23   ar
    18     5     6   ar
    19     6     7   ar
    20     7     8   ar
    21     8     9    2
    22     8    10   ar
    23    10    24    1
    24    25    24    1
    25    25    26    1
    26    26    27    1
    27    27    28    1
    28    28    29    1
    29    29    31    1
    30    32    31    1
    31    32    33    1
    32    33    34    1
    33    34    35    1
    34    35    36    1
    35    29    30    1
    36    17    12   ar
    37    10     1   ar
    38    30    25    1
    39     7     3   ar
    40    36    32    1
    41    23    18   ar
@<TRIPOS>MOLECULE
*****
 36 41 0 0 0
SMALL
GASTEIGER

@<TRIPOS>ATOM
      1 C         142.4116  143.1895  161.6774 C.ar    1  UNL1        0.1472
      2 N         142.7932  143.6847  160.3138 N.ar    1  UNL1       -0.2248
      3 C         141.8094  144.4712  159.4992 C.ar    1  UNL1        0.1260
      4 C         141.9006  145.0849  158.1336 C.ar    1  UNL1        0.1212
      5 N         140.5917  145.7556  157.8385 N.ar    1  UNL1       -0.2265
      6 N         139.6916  145.5563  159.0217 N.ar    1  UNL1       -0.1586
      7 C         140.4442  144.7625  160.0481 C.ar    1  UNL1        0.1762
      8 C         140.0627  144.2672  161.4117 C.ar    1  UNL1        0.2829
      9 O         138.6975  144.5585  161.9606 O.2     1  UNL1       -0.2652
     10 N         141.0465  143.4807  162.2263 N.ar    1  UNL1       -0.2792
     11 C         143.9954  144.5445  163.8350 C.3     1  UNL1        0.0522
     12 C         144.1873  143.0804  163.5709 C.ar    1  UNL1        0.0623
     13 N         145.1711  142.2939  164.3855 N.ar    1  UNL1       -0.2480
     14 C         145.3629  140.8299  164.1212 C.ar    1  UNL1        0.0984
     15 C         144.5711  140.1523  163.0424 C.ar    1  UNL1        0.0208
     16 C         143.5873  140.9389  162.2278 C.ar    1  UNL1        0.0058
     17 C         143.3954  142.4029  162.4920 C.ar    1  UNL1        0.0478
     18 C         140.2439  146.4956  156.5809 C.ar    1  UNL1        0.0829
     19 C         140.9404  146.1591  155.2957 C.ar    1  UNL1        0.0191
     20 C         140.5925  146.8992  154.0382 C.ar    1  UNL1        0.0015
     21 C         139.5483  147.9757  154.0658 C.ar    1  UNL1        0.0001
     22 C         138.8519  148.3122  155.3510 C.ar    1  UNL1        0.0015
     23 C         139.1998  147.5721  156.6086 C.ar    1  UNL1        0.0191
     24 C         140.6649  142.9855  163.5899 C.3     1  UNL1        0.1119
     25 C         139.8940  141.7071  163.7349 C.3     1  UNL1        0.0388
     26 C         138.9175  141.5439  164.8619 C.3     1  UNL1        0.0048
     27 C         138.1465  140.2655  165.0069 C.3     1  UNL1        0.0174
     28 C         138.3520  139.1501  164.0251 C.3     1  UNL1        0.0722
     29 N         139.3284  139.3133  162.8982 N.3     1  UNL1       -0.2706
     30 C         140.0994  140.5918  162.7531 C.3     1  UNL1        0.0741
     31 C         139.5338  138.1980  161.9164 C.3     1  UNL1        0.1020
     32 C         140.7939  138.1356  161.1051 C.3     1  UNL1        0.1312
     33 C         141.0140  138.7775  159.7673 C.3     1  UNL1        0.0336
     34 C         142.4113  138.4589  159.3246 C.3     1  UNL1        0.0346
     35 C         143.0548  137.6201  160.3886 C.3     1  UNL1        0.1422
     36 O         142.0552  137.4202  161.4891 O.3     1  UNL1       -0.3548
@<TRIPOS>BOND
     1    11    12    1
     2    12    13   ar
     3    13    14   ar
     4    14    15   ar
     5    15    16   ar
     6    16    17   ar
     7    17     1    1
     8     1     2   ar
     9     2     3   ar
    10     3     4   ar
    11     4     5   ar
    12     5    18    1
    13    18    19   ar
    14    19    20   ar
    15    20    21   ar
    16    21    22   ar
    17    22    23   ar
    18     5     6   ar
    19     6     7   ar
    20     7     8   ar
    21     8     9    2
    22     8    10   ar
    23    10    24    1
    24    25    24    1
    25    25    26    1
    26    26    27    1
    27    27    28    1
    28    28    29    1
    29    29    31    1
    30    32    31    1
    31    32    33    1
    32    33    34    1
    33    34    35    1
    34    35    36    1
    35    29    30    1
    36    17    12   ar
    37    10     1   ar
    38    30    25    1
    39     7     3   ar
    40    36    32    1
    41    23    18   ar
@<TRIPOS>MOLECULE
*****
 36 41 0 0 0
SMALL
GASTEIGER

@<TRIPOS>ATOM
      1 C         142.5326  143.1351  161.8676 C.ar    1  UNL1        0.1472
      2 N         142.7418  143.3443  160.3970 N.ar    1  UNL1       -0.2248
      3 C         141.8595  144.2934  159.6415 C.ar    1  UNL1        0.1260
      4 C         141.8271  144.7007  158.1983 C.ar    1  UNL1        0.1212
      5 N         140.7157  145.6924  158.0214 N.ar    1  UNL1       -0.2265
      6 N         140.0611  145.8979  159.3553 N.ar    1  UNL1       -0.1586
      7 C         140.7680  145.0332  160.3566 C.ar    1  UNL1        0.1762
      8 C         140.5588  144.8240  161.8272 C.ar    1  UNL1        0.2829
      9 O         139.4674  145.5639  162.5422 O.2     1  UNL1       -0.2652
     10 N         141.4412  143.8749  162.5826 N.ar    1  UNL1       -0.2792
     11 C         141.7601  140.2473  162.1202 C.3     1  UNL1        0.0522
     12 C         143.0287  140.7421  162.7494 C.ar    1  UNL1        0.0623
     13 N         143.9110  139.7930  163.5049 N.ar    1  UNL1       -0.2480
     14 C         145.1796  140.2879  164.1341 C.ar    1  UNL1        0.0984
     15 C         145.5658  141.7318  164.0078 C.ar    1  UNL1        0.0208
     16 C         144.6835  142.6808  163.2523 C.ar    1  UNL1        0.0058
     17 C         143.4149  142.1860  162.6231 C.ar    1  UNL1        0.0478
     18 C         140.3270  146.3611  156.7362 C.ar    1  UNL1        0.0829
     19 C         139.2249  147.3786  156.7236 C.ar    1  UNL1        0.0191
     20 C         138.8363  148.0473  155.4383 C.ar    1  UNL1        0.0015
     21 C         139.5497  147.6986  154.1657 C.ar    1  UNL1        0.0001
     22 C         140.6518  146.6811  154.1784 C.ar    1  UNL1        0.0015
     23 C         141.0404  146.0124  155.4636 C.ar    1  UNL1        0.0191
     24 C         141.2320  143.6658  164.0532 C.3     1  UNL1        0.1119
     25 C         140.3285  142.5691  164.5337 C.3     1  UNL1        0.0388
     26 C         139.0279  142.3078  163.8334 C.3     1  UNL1        0.0048
     27 C         138.1245  141.2112  164.3139 C.3     1  UNL1        0.0174
     28 C         138.5215  140.3756  165.4948 C.3     1  UNL1        0.0722
     29 N         139.8220  140.6369  166.1951 N.3     1  UNL1       -0.2706
     30 C         140.7255  141.7336  165.7145 C.3     1  UNL1        0.0741
     31 C         140.2190  139.8014  167.3760 C.3     1  UNL1        0.1020
     32 C         140.3609  140.4339  168.7285 C.3     1  UNL1        0.1312
     33 C         140.9664  139.7935  169.9423 C.3     1  UNL1        0.0336
     34 C         140.9018  140.7818  171.0689 C.3     1  UNL1        0.0346
     35 C         140.2564  142.0331  170.5514 C.3     1  UNL1        0.1422
     36 O         139.9221  141.8181  169.1050 O.3     1  UNL1       -0.3548
@<TRIPOS>BOND
     1    11    12    1
     2    12    13   ar
     3    13    14   ar
     4    14    15   ar
     5    15    16   ar
     6    16    17   ar
     7    17     1    1
     8     1     2   ar
     9     2     3   ar
    10     3     4   ar
    11     4     5   ar
    12     5    18    1
    13    18    19   ar
    14    19    20   ar
    15    20    21   ar
    16    21    22   ar
    17    22    23   ar
    18     5     6   ar
    19     6     7   ar
    20     7     8   ar
    21     8     9    2
    22     8    10   ar
    23    10    24    1
    24    25    24    1
    25    25    26    1
    26    26    27    1
    27    27    28    1
    28    28    29    1
    29    29    31    1
    30    32    31    1
    31    32    33    1
    32    33    34    1
    33    34    35    1
    34    35    36    1
    35    29    30    1
    36    17    12   ar
    37    10     1   ar
    38    30    25    1
    39     7     3   ar
    40    36    32    1
    41    23    18   ar
@<TRIPOS>MOLECULE
*****
 36 41 0 0 0
SMALL
GASTEIGER

@<TRIPOS>ATOM
      1 C         142.7731  139.1590  160.5921 C.ar    1  UNL1        0.1472
      2 N         143.4054  138.3219  159.5199 N.ar    1  UNL1       -0.2248
      3 C         142.5757  137.8131  158.3786 C.ar    1  UNL1        0.1260
      4 C         142.9191  136.9727  157.1845 C.ar    1  UNL1        0.1212
      5 N         141.6693  136.7816  156.3774 N.ar    1  UNL1       -0.2265
      6 N         140.5535  137.5038  157.0726 N.ar    1  UNL1       -0.1586
      7 C         141.1137  138.1414  158.3094 C.ar    1  UNL1        0.1762
      8 C         140.4814  138.9785  159.3816 C.ar    1  UNL1        0.2829
      9 O         139.0194  139.3067  159.3125 O.2     1  UNL1       -0.2652
     10 N         141.3112  139.4872  160.5229 N.ar    1  UNL1       -0.2792
     11 C         144.1613  141.8094  160.3727 C.3     1  UNL1        0.0522
     12 C         144.2970  140.9930  161.6238 C.ar    1  UNL1        0.0623
     13 N         145.1267  141.5018  162.7652 N.ar    1  UNL1       -0.2480
     14 C         145.2623  140.6853  164.0162 C.ar    1  UNL1        0.0984
     15 C         144.5682  139.3601  164.1259 C.ar    1  UNL1        0.0208
     16 C         143.7385  138.8514  162.9845 C.ar    1  UNL1        0.0058
     17 C         143.6029  139.6678  161.7335 C.ar    1  UNL1        0.0478
     18 C         141.5552  136.0045  155.0994 C.ar    1  UNL1        0.0829
     19 C         141.7102  134.5126  155.1124 C.ar    1  UNL1        0.0191
     20 C         141.5962  133.7357  153.8343 C.ar    1  UNL1        0.0015
     21 C         141.3271  134.4506  152.5434 C.ar    1  UNL1        0.0001
     22 C         141.1722  135.9425  152.5304 C.ar    1  UNL1        0.0015
     23 C         141.2862  136.7194  153.8085 C.ar    1  UNL1        0.0191
     24 C         140.6788  140.3243  161.5951 C.3     1  UNL1        0.1119
     25 C         140.1192  139.6714  162.8241 C.3     1  UNL1        0.0388
     26 C         139.5621  138.2808  162.7471 C.3     1  UNL1        0.0048
     27 C         139.0024  137.6279  163.9760 C.3     1  UNL1        0.0174
     28 C         138.9998  138.3656  165.2821 C.3     1  UNL1        0.0722
     29 N         139.5568  139.7562  165.3592 N.3     1  UNL1       -0.2706
     30 C         140.1165  140.4091  164.1301 C.3     1  UNL1        0.0741
     31 C         139.5542  140.4938  166.6653 C.3     1  UNL1        0.1020
     32 C         140.5061  140.0952  167.7537 C.3     1  UNL1        0.1312
     33 C         141.9821  139.8779  167.5983 C.3     1  UNL1        0.0336
     34 C         142.5374  139.4922  168.9373 C.3     1  UNL1        0.0346
     35 C         141.4046  139.4711  169.9203 C.3     1  UNL1        0.1422
     36 O         140.1491  139.8438  169.1889 O.3     1  UNL1       -0.3548
@<TRIPOS>BOND
     1    11    12    1
     2    12    13   ar
     3    13    14   ar
     4    14    15   ar
     5    15    16   ar
     6    16    17   ar
     7    17     1    1
     8     1     2   ar
     9     2     3   ar
    10     3     4   ar
    11     4     5   ar
    12     5    18    1
    13    18    19   ar
    14    19    20   ar
    15    20    21   ar
    16    21    22   ar
    17    22    23   ar
    18     5     6   ar
    19     6     7   ar
    20     7     8   ar
    21     8     9    2
    22     8    10   ar
    23    10    24    1
    24    25    24    1
    25    25    26    1
    26    26    27    1
    27    27    28    1
    28    28    29    1
    29    29    31    1
    30    32    31    1
    31    32    33    1
    32    33    34    1
    33    34    35    1
    34    35    36    1
    35    29    30    1
    36    17    12   ar
    37    10     1   ar
    38    30    25    1
    39     7     3   ar
    40    36    32    1
    41    23    18   ar
@<TRIPOS>MOLECULE
*****
 36 41 0 0 0
SMALL
GASTEIGER

@<TRIPOS>ATOM
      1 C         140.2817  140.2594  159.9155 C.ar    1  UNL1        0.1472
      2 N         139.6559  139.2792  158.9680 N.ar    1  UNL1       -0.2248
      3 C         140.5201  138.4698  158.0472 C.ar    1  UNL1        0.1260
      4 C         140.1906  137.4344  157.0131 C.ar    1  UNL1        0.1212
      5 N         141.4770  136.9653  156.4006 N.ar    1  UNL1       -0.2265
      6 N         142.6015  137.7109  157.0560 N.ar    1  UNL1       -0.1586
      7 C         142.0101  138.6407  158.0737 C.ar    1  UNL1        0.1762
      8 C         142.6359  139.6209  159.0211 C.ar    1  UNL1        0.2829
      9 O         144.1259  139.7918  159.0476 O.2     1  UNL1       -0.2652
     10 N         141.7717  140.4303  159.9419 N.ar    1  UNL1       -0.2792
     11 C         139.2605  142.9418  159.0428 C.3     1  UNL1        0.0522
     12 C         138.9068  142.4100  160.4000 C.ar    1  UNL1        0.0623
     13 N         138.0426  143.2194  161.3209 N.ar    1  UNL1       -0.2480
     14 C         137.6890  142.6875  162.6782 C.ar    1  UNL1        0.0984
     15 C         138.1996  141.3463  163.1145 C.ar    1  UNL1        0.0208
     16 C         139.0638  140.5370  162.1936 C.ar    1  UNL1        0.0058
     17 C         139.4175  141.0688  160.8364 C.ar    1  UNL1        0.0478
     18 C         141.6147  135.9321  155.3219 C.ar    1  UNL1        0.0829
     19 C         141.4223  136.3176  153.8851 C.ar    1  UNL1        0.0191
     20 C         141.5601  135.2843  152.8065 C.ar    1  UNL1        0.0015
     21 C         141.8901  133.8655  153.1646 C.ar    1  UNL1        0.0001
     22 C         142.0824  133.4800  154.6014 C.ar    1  UNL1        0.0015
     23 C         141.9447  134.5134  155.6801 C.ar    1  UNL1        0.0191
     24 C         142.3975  141.4105  160.8894 C.3     1  UNL1        0.1119
     25 C         143.1723  140.9174  162.0752 C.3     1  UNL1        0.0388
     26 C         144.5993  141.3383  162.2666 C.3     1  UNL1        0.0048
     27 C         145.3741  140.8452  163.4525 C.3     1  UNL1        0.0174
     28 C         144.7220  139.9312  164.4472 C.3     1  UNL1        0.0722
     29 N         143.2950  139.5103  164.2559 N.3     1  UNL1       -0.2706
     30 C         142.5202  140.0034  163.0699 C.3     1  UNL1        0.0741
     31 C         142.6429  138.5963  165.2505 C.3     1  UNL1        0.1020
     32 C         141.1489  138.4677  165.2839 C.3     1  UNL1        0.1312
     33 C         140.3328  137.4663  164.5215 C.3     1  UNL1        0.0336
     34 C         138.8880  137.6977  164.8520 C.3     1  UNL1        0.0346
     35 C         138.8112  138.8421  165.8187 C.3     1  UNL1        0.1422
     36 O         140.2084  139.3180  166.0856 O.3     1  UNL1       -0.3548
@<TRIPOS>BOND
     1    11    12    1
     2    12    13   ar
     3    13    14   ar
     4    14    15   ar
     5    15    16   ar
     6    16    17   ar
     7    17     1    1
     8     1     2   ar
     9     2     3   ar
    10     3     4   ar
    11     4     5   ar
    12     5    18    1
    13    18    19   ar
    14    19    20   ar
    15    20    21   ar
    16    21    22   ar
    17    22    23   ar
    18     5     6   ar
    19     6     7   ar
    20     7     8   ar
    21     8     9    2
    22     8    10   ar
    23    10    24    1
    24    25    24    1
    25    25    26    1
    26    26    27    1
    27    27    28    1
    28    28    29    1
    29    29    31    1
    30    32    31    1
    31    32    33    1
    32    33    34    1
    33    34    35    1
    34    35    36    1
    35    29    30    1
    36    17    12   ar
    37    10     1   ar
    38    30    25    1
    39     7     3   ar
    40    36    32    1
    41    23    18   ar
@<TRIPOS>MOLECULE
*****
 36 41 0 0 0
SMALL
GASTEIGER

@<TRIPOS>ATOM
      1 C         142.5887  143.2671  161.8085 C.ar    1  UNL1        0.1472
      2 N         142.8152  143.5163  160.3467 N.ar    1  UNL1       -0.2248
      3 C         141.8977  144.4312  159.5909 C.ar    1  UNL1        0.1260
      4 C         141.8717  144.8646  158.1551 C.ar    1  UNL1        0.1212
      5 N         140.7117  145.7982  157.9737 N.ar    1  UNL1       -0.2265
      6 N         140.0208  145.9417  159.2974 N.ar    1  UNL1       -0.1586
      7 C         140.7538  145.0968  160.2969 C.ar    1  UNL1        0.1762
      8 C         140.5274  144.8476  161.7586 C.ar    1  UNL1        0.2829
      9 O         139.3835  145.5133  162.4646 O.2     1  UNL1       -0.2652
     10 N         141.4449  143.9328  162.5143 N.ar    1  UNL1       -0.2792
     11 C         142.2224  140.2948  161.6322 C.3     1  UNL1        0.0522
     12 C         143.3231  140.8661  162.4762 C.ar    1  UNL1        0.0623
     13 N         144.2406  139.9512  163.2320 N.ar    1  UNL1       -0.2480
     14 C         145.3413  140.5225  164.0758 C.ar    1  UNL1        0.0984
     15 C         145.5244  142.0087  164.1640 C.ar    1  UNL1        0.0208
     16 C         144.6069  142.9235  163.4082 C.ar    1  UNL1        0.0058
     17 C         143.5063  142.3522  162.5643 C.ar    1  UNL1        0.0478
     18 C         140.3127  146.4702  156.6935 C.ar    1  UNL1        0.0829
     19 C         139.2272  147.5054  156.6965 C.ar    1  UNL1        0.0191
     20 C         138.8282  148.1774  155.4161 C.ar    1  UNL1        0.0015
     21 C         139.5147  147.8143  154.1328 C.ar    1  UNL1        0.0001
     22 C         140.6003  146.7792  154.1298 C.ar    1  UNL1        0.0015
     23 C         140.9992  146.1071  155.4102 C.ar    1  UNL1        0.0191
     24 C         141.2184  143.6836  163.9761 C.3     1  UNL1        0.1119
     25 C         140.3688  142.5290  164.4174 C.3     1  UNL1        0.0388
     26 C         140.3669  142.1059  165.8565 C.3     1  UNL1        0.0048
     27 C         139.5173  140.9513  166.2977 C.3     1  UNL1        0.0174
     28 C         138.6695  140.2195  165.2998 C.3     1  UNL1        0.0722
     29 N         138.6713  140.6424  163.8607 N.3     1  UNL1       -0.2706
     30 C         139.5210  141.7972  163.4195 C.3     1  UNL1        0.0741
     31 C         137.8235  139.9107  162.8628 C.3     1  UNL1        0.1020
     32 C         138.3845  139.5586  161.5171 C.3     1  UNL1        0.1312
     33 C         139.1615  138.3200  161.1822 C.3     1  UNL1        0.0336
     34 C         139.5242  138.3792  159.7279 C.3     1  UNL1        0.0346
     35 C         138.9712  139.6544  159.1639 C.3     1  UNL1        0.1422
     36 O         138.2669  140.3833  160.2696 O.3     1  UNL1       -0.3548
@<TRIPOS>BOND
     1    11    12    1
     2    12    13   ar
     3    13    14   ar
     4    14    15   ar
     5    15    16   ar
     6    16    17   ar
     7    17     1    1
     8     1     2   ar
     9     2     3   ar
    10     3     4   ar
    11     4     5   ar
    12     5    18    1
    13    18    19   ar
    14    19    20   ar
    15    20    21   ar
    16    21    22   ar
    17    22    23   ar
    18     5     6   ar
    19     6     7   ar
    20     7     8   ar
    21     8     9    2
    22     8    10   ar
    23    10    24    1
    24    25    24    1
    25    25    26    1
    26    26    27    1
    27    27    28    1
    28    28    29    1
    29    29    31    1
    30    32    31    1
    31    32    33    1
    32    33    34    1
    33    34    35    1
    34    35    36    1
    35    29    30    1
    36    17    12   ar
    37    10     1   ar
    38    30    25    1
    39     7     3   ar
    40    36    32    1
    41    23    18   ar
@<TRIPOS>MOLECULE
*****
 36 41 0 0 0
SMALL
GASTEIGER

@<TRIPOS>ATOM
      1 C         140.9889  142.1165  160.3250 C.ar    1  UNL1        0.1472
      2 N         140.0568  142.8570  159.4124 N.ar    1  UNL1       -0.2248
      3 C         139.0912  142.0987  158.5507 C.ar    1  UNL1        0.1260
      4 C         138.0595  142.5521  157.5607 C.ar    1  UNL1        0.1212
      5 N         137.3884  141.3335  156.9998 N.ar    1  UNL1       -0.2265
      6 N         138.0052  140.1270  157.6432 N.ar    1  UNL1       -0.1586
      7 C         139.0576  140.5999  158.6017 C.ar    1  UNL1        0.1762
      8 C         139.9897  139.8595  159.5143 C.ar    1  UNL1        0.2829
      9 O         139.9562  138.3607  159.5653 O.2     1  UNL1       -0.2652
     10 N         140.9553  140.6178  160.3760 N.ar    1  UNL1       -0.2792
     11 C         143.8368  142.4564  159.4455 C.3     1  UNL1        0.0522
     12 C         143.3786  143.0448  160.7470 C.ar    1  UNL1        0.0623
     13 N         144.3442  143.8031  161.6087 N.ar    1  UNL1       -0.2480
     14 C         143.8859  144.3914  162.9101 C.ar    1  UNL1        0.0984
     15 C         142.4619  144.2215  163.3499 C.ar    1  UNL1        0.0208
     16 C         141.4963  143.4632  162.4882 C.ar    1  UNL1        0.0058
     17 C         141.9546  142.8748  161.1868 C.ar    1  UNL1        0.0478
     18 C         136.2927  141.3232  155.9754 C.ar    1  UNL1        0.0829
     19 C         136.4650  142.0690  154.6854 C.ar    1  UNL1        0.0191
     20 C         135.3692  142.0587  153.6611 C.ar    1  UNL1        0.0015
     21 C         134.1013  141.3025  153.9266 C.ar    1  UNL1        0.0001
     22 C         133.9290  140.5566  155.2166 C.ar    1  UNL1        0.0015
     23 C         135.0248  140.5670  156.2410 C.ar    1  UNL1        0.0191
     24 C         141.8875  139.8773  161.2887 C.3     1  UNL1        0.1119
     25 C         141.3762  139.3001  162.5752 C.3     1  UNL1        0.0388
     26 C         141.6126  137.8537  162.8948 C.3     1  UNL1        0.0048
     27 C         141.1013  137.2765  164.1813 C.3     1  UNL1        0.0174
     28 C         140.3536  138.1458  165.1486 C.3     1  UNL1        0.0722
     29 N         140.1172  139.5922  164.8291 N.3     1  UNL1       -0.2706
     30 C         140.6285  140.1693  163.5424 C.3     1  UNL1        0.0741
     31 C         139.3695  140.4614  165.7963 C.3     1  UNL1        0.1020
     32 C         139.0440  141.8798  165.4331 C.3     1  UNL1        0.1312
     33 C         139.8320  143.0939  165.8271 C.3     1  UNL1        0.0336
     34 C         139.1484  144.2977  165.2497 C.3     1  UNL1        0.0346
     35 C         137.9379  143.8277  164.4988 C.3     1  UNL1        0.1422
     36 O         137.8734  142.3334  164.6121 O.3     1  UNL1       -0.3548
@<TRIPOS>BOND
     1    11    12    1
     2    12    13   ar
     3    13    14   ar
     4    14    15   ar
     5    15    16   ar
     6    16    17   ar
     7    17     1    1
     8     1     2   ar
     9     2     3   ar
    10     3     4   ar
    11     4     5   ar
    12     5    18    1
    13    18    19   ar
    14    19    20   ar
    15    20    21   ar
    16    21    22   ar
    17    22    23   ar
    18     5     6   ar
    19     6     7   ar
    20     7     8   ar
    21     8     9    2
    22     8    10   ar
    23    10    24    1
    24    25    24    1
    25    25    26    1
    26    26    27    1
    27    27    28    1
    28    28    29    1
    29    29    31    1
    30    32    31    1
    31    32    33    1
    32    33    34    1
    33    34    35    1
    34    35    36    1
    35    29    30    1
    36    17    12   ar
    37    10     1   ar
    38    30    25    1
    39     7     3   ar
    40    36    32    1
    41    23    18   ar
@<TRIPOS>MOLECULE
*****
 36 41 0 0 0
SMALL
GASTEIGER

@<TRIPOS>ATOM
      1 C         140.1925  142.2267  162.3872 C.ar    1  UNL1        0.1472
      2 N         139.5567  142.4075  161.0407 N.ar    1  UNL1       -0.2248
      3 C         140.1046  143.4237  160.0830 C.ar    1  UNL1        0.1260
      4 C         139.6905  143.8228  158.6977 C.ar    1  UNL1        0.1212
      5 N         140.6183  144.9048  158.2303 N.ar    1  UNL1       -0.2265
      6 N         141.6058  145.1744  159.3268 N.ar    1  UNL1       -0.1586
      7 C         141.2883  144.2590  160.4718 C.ar    1  UNL1        0.1762
      8 C         141.9240  144.0781  161.8183 C.ar    1  UNL1        0.2829
      9 O         143.1077  144.9134  162.2072 O.2     1  UNL1       -0.2652
     10 N         141.3761  143.0620  162.7760 N.ar    1  UNL1       -0.2792
     11 C         138.2309  143.0600  164.4985 C.3     1  UNL1        0.0522
     12 C         138.6638  141.6271  164.4006 C.ar    1  UNL1        0.0623
     13 N         138.1159  140.6109  165.3583 N.ar    1  UNL1       -0.2480
     14 C         138.5488  139.1781  165.2603 C.ar    1  UNL1        0.0984
     15 C         139.5296  138.7614  164.2047 C.ar    1  UNL1        0.0208
     16 C         140.0775  139.7776  163.2470 C.ar    1  UNL1        0.0058
     17 C         139.6446  141.2105  163.3450 C.ar    1  UNL1        0.0478
     18 C         140.5676  145.5960  156.8999 C.ar    1  UNL1        0.0829
     19 C         141.4802  145.1591  155.7925 C.ar    1  UNL1        0.0191
     20 C         141.4294  145.8503  154.4622 C.ar    1  UNL1        0.0015
     21 C         140.4661  146.9783  154.2393 C.ar    1  UNL1        0.0001
     22 C         139.5535  147.4151  155.3467 C.ar    1  UNL1        0.0015
     23 C         139.6043  146.7239  156.6770 C.ar    1  UNL1        0.0191
     24 C         142.0120  142.8811  164.1226 C.3     1  UNL1        0.1119
     25 C         142.7545  141.6166  164.4376 C.3     1  UNL1        0.0388
     26 C         143.7567  141.0726  163.4630 C.3     1  UNL1        0.0048
     27 C         144.4993  139.8080  163.7781 C.3     1  UNL1        0.0174
     28 C         144.2397  139.0873  165.0678 C.3     1  UNL1        0.0722
     29 N         143.2375  139.6312  166.0424 N.3     1  UNL1       -0.2706
     30 C         142.4949  140.8958  165.7272 C.3     1  UNL1        0.0741
     31 C         142.9779  138.9104  167.3320 C.3     1  UNL1        0.1020
     32 C         142.4198  139.6552  168.5082 C.3     1  UNL1        0.1312
     33 C         140.9660  139.8872  168.7959 C.3     1  UNL1        0.0336
     34 C         140.8652  140.6742  170.0689 C.3     1  UNL1        0.0346
     35 C         142.2567  140.9286  170.5680 C.3     1  UNL1        0.1422
     36 O         143.2175  140.2989  169.6035 O.3     1  UNL1       -0.3548
@<TRIPOS>BOND
     1    11    12    1
     2    12    13   ar
     3    13    14   ar
     4    14    15   ar
     5    15    16   ar
     6    16    17   ar
     7    17     1    1
     8     1     2   ar
     9     2     3   ar
    10     3     4   ar
    11     4     5   ar
    12     5    18    1
    13    18    19   ar
    14    19    20   ar
    15    20    21   ar
    16    21    22   ar
    17    22    23   ar
    18     5     6   ar
    19     6     7   ar
    20     7     8   ar
    21     8     9    2
    22     8    10   ar
    23    10    24    1
    24    25    24    1
    25    25    26    1
    26    26    27    1
    27    27    28    1
    28    28    29    1
    29    29    31    1
    30    32    31    1
    31    32    33    1
    32    33    34    1
    33    34    35    1
    34    35    36    1
    35    29    30    1
    36    17    12   ar
    37    10     1   ar
    38    30    25    1
    39     7     3   ar
    40    36    32    1
    41    23    18   ar
@<TRIPOS>MOLECULE
*****
 36 41 0 0 0
SMALL
GASTEIGER

@<TRIPOS>ATOM
      1 C         140.0260  141.7312  161.2978 C.ar    1  UNL1        0.1472
      2 N         139.9845  141.8903  159.8068 N.ar    1  UNL1       -0.2248
      3 C         139.9881  143.2614  159.1985 C.ar    1  UNL1        0.1260
      4 C         139.9533  143.7271  157.7731 C.ar    1  UNL1        0.1212
      5 N         139.9769  145.2269  157.7748 N.ar    1  UNL1       -0.2265
      6 N         140.0262  145.6881  159.2013 N.ar    1  UNL1       -0.1586
      7 C         140.0331  144.4733  160.0812 C.ar    1  UNL1        0.1762
      8 C         140.0746  144.3142  161.5722 C.ar    1  UNL1        0.2829
      9 O         140.1197  145.5261  162.4548 O.2     1  UNL1       -0.2652
     10 N         140.0711  142.9431  162.1804 N.ar    1  UNL1       -0.2792
     11 C         142.6118  140.2686  161.7150 C.3     1  UNL1        0.0522
     12 C         141.3154  139.6287  162.1147 C.ar    1  UNL1        0.0623
     13 N         141.3118  138.2576  162.7230 N.ar    1  UNL1       -0.2480
     14 C         140.0153  137.6177  163.1227 C.ar    1  UNL1        0.0984
     15 C         138.7223  138.3491  162.9141 C.ar    1  UNL1        0.0208
     16 C         138.7259  139.7202  162.3058 C.ar    1  UNL1        0.0058
     17 C         140.0224  140.3600  161.9061 C.ar    1  UNL1        0.0478
     18 C         139.9550  146.1104  156.5628 C.ar    1  UNL1        0.0829
     19 C         139.1047  147.3461  156.5507 C.ar    1  UNL1        0.0191
     20 C         139.0828  148.2295  155.3386 C.ar    1  UNL1        0.0015
     21 C         139.9112  147.8774  154.1387 C.ar    1  UNL1        0.0001
     22 C         140.7615  146.6417  154.1508 C.ar    1  UNL1        0.0015
     23 C         140.7833  145.7583  155.3629 C.ar    1  UNL1        0.0191
     24 C         140.1126  142.7840  163.6714 C.3     1  UNL1        0.1119
     25 C         141.4251  142.8388  164.3953 C.3     1  UNL1        0.0388
     26 C         142.6591  143.2992  163.6772 C.3     1  UNL1        0.0048
     27 C         143.9716  143.3541  164.4011 C.3     1  UNL1        0.0174
     28 C         144.0504  142.9485  165.8431 C.3     1  UNL1        0.0722
     29 N         142.8166  142.4881  166.5612 N.3     1  UNL1       -0.2706
     30 C         141.5040  142.4332  165.8373 C.3     1  UNL1        0.0741
     31 C         142.8954  142.0825  168.0032 C.3     1  UNL1        0.1020
     32 C         141.6639  142.1117  168.8589 C.3     1  UNL1        0.1312
     33 C         141.1696  143.2843  169.6531 C.3     1  UNL1        0.0336
     34 C         139.9105  142.8707  170.3557 C.3     1  UNL1        0.0346
     35 C         139.6266  141.4425  169.9958 C.3     1  UNL1        0.1422
     36 O         140.7101  140.9734  169.0707 O.3     1  UNL1       -0.3548
@<TRIPOS>BOND
     1    11    12    1
     2    12    13   ar
     3    13    14   ar
     4    14    15   ar
     5    15    16   ar
     6    16    17   ar
     7    17     1    1
     8     1     2   ar
     9     2     3   ar
    10     3     4   ar
    11     4     5   ar
    12     5    18    1
    13    18    19   ar
    14    19    20   ar
    15    20    21   ar
    16    21    22   ar
    17    22    23   ar
    18     5     6   ar
    19     6     7   ar
    20     7     8   ar
    21     8     9    2
    22     8    10   ar
    23    10    24    1
    24    25    24    1
    25    25    26    1
    26    26    27    1
    27    27    28    1
    28    28    29    1
    29    29    31    1
    30    32    31    1
    31    32    33    1
    32    33    34    1
    33    34    35    1
    34    35    36    1
    35    29    30    1
    36    17    12   ar
    37    10     1   ar
    38    30    25    1
    39     7     3   ar
    40    36    32    1
    41    23    18   ar
