@<TRIPOS>MOLECULE
*****
 33 37 0 0 0
SMALL
GASTEIGER

@<TRIPOS>ATOM
      1 C         141.6169  138.5841  161.7231 C.ar    1  UNL1        0.0541
      2 C         142.8263  137.7243  161.5040 C.ar    1  UNL1        0.0180
      3 C         143.2855  137.4173  160.1093 C.ar    1  UNL1        0.0382
      4 C         142.5354  137.9702  158.9339 C.ar    1  UNL1        0.1385
      5 C         141.3260  138.8300  159.1531 C.ar    1  UNL1        0.0382
      6 C         140.8668  139.1370  160.5476 C.ar    1  UNL1        0.0180
      7 O         138.4954  139.2306  167.8131 O.2     1  UNL1       -0.2699
      8 C         139.7800  139.8121  167.3014 C.2     1  UNL1        0.2494
      9 N         140.2392  139.5051  165.9069 N.am    1  UNL1       -0.2660
     10 C         141.5237  140.0866  165.3952 C.3     1  UNL1        0.1160
     11 C         141.9830  139.7796  164.0005 C.3     1  UNL1        0.1197
     12 N         141.1577  138.8911  163.1177 N.am    1  UNL1       -0.2555
     13 C         139.8731  138.3096  163.6294 C.2     1  UNL1        0.2497
     14 O         139.0478  137.4211  162.7465 O.2     1  UNL1       -0.2727
     15 C         139.4139  138.6166  165.0239 C.3     1  UNL1        0.1799
     16 C         140.6053  140.7006  168.1843 C.ar    1  UNL1        0.0536
     17 C         141.7108  140.1165  169.0129 C.ar    1  UNL1        0.0054
     18 C         142.5360  141.0050  169.8958 C.ar    1  UNL1        0.0115
     19 C         142.2557  142.4776  169.9501 C.ar    1  UNL1        0.0577
     20 CL        143.0810  143.3661  170.8330 Cl      1  UNL1       -0.0822
     21 C         141.1502  143.0616  169.1215 C.ar    1  UNL1        0.0115
     22 C         140.3249  142.1731  168.2386 C.ar    1  UNL1        0.0054
     23 O         142.9946  137.6632  157.5394 O.3     1  UNL1       -0.4791
     24 C         142.6100  136.3662  156.8915 C.3     1  UNL1        0.1687
     25 C         143.3291  135.1021  157.2589 C.3     1  UNL1        0.0609
     26 C         142.9445  133.8050  156.6110 C.3     1  UNL1        0.0758
     27 N         141.8409  133.7720  155.5958 N.3     1  UNL1       -0.2737
     28 C         141.1217  135.0361  155.2284 C.3     1  UNL1        0.0758
     29 C         141.5063  136.3332  155.8763 C.3     1  UNL1        0.0609
     30 C         141.4563  132.4750  154.9480 C.3     1  UNL1        0.0575
     31 C         141.5691  131.0272  155.3237 C.3     1  UNL1        0.0160
     32 C         140.9124  130.6407  154.0318 C.3     1  UNL1        0.0028
     33 C         140.7994  132.0884  153.6559 C.3     1  UNL1        0.0160
@<TRIPOS>BOND
     1     7     8    2
     2     8    16    1
     3    16    17   ar
     4    17    18   ar
     5    18    19   ar
     6    19    20    1
     7    19    21   ar
     8    21    22   ar
     9     8     9   am
    10     9    10    1
    11    10    11    1
    12    11    12    1
    13    12     1    1
    14     1     2   ar
    15     2     3   ar
    16     3     4   ar
    17     4    23    1
    18    23    24    1
    19    24    25    1
    20    25    26    1
    21    26    27    1
    22    27    30    1
    23    30    31    1
    24    31    32    1
    25    32    33    1
    26    27    28    1
    27    28    29    1
    28     4     5   ar
    29     5     6   ar
    30    12    13   am
    31    13    14    2
    32    13    15    1
    33    22    16   ar
    34    15     9    1
    35     6     1   ar
    36    29    24    1
    37    33    30    1
@<TRIPOS>MOLECULE
*****
 33 37 0 0 0
SMALL
GASTEIGER

@<TRIPOS>ATOM
      1 C         141.2376  139.0628  161.6201 C.ar    1  UNL1        0.0541
      2 C         142.3050  138.0785  161.2437 C.ar    1  UNL1        0.0180
      3 C         142.6658  137.8782  159.8015 C.ar    1  UNL1        0.0382
      4 C         141.9590  138.6622  158.7358 C.ar    1  UNL1        0.1385
      5 C         140.8916  139.6465  159.1121 C.ar    1  UNL1        0.0382
      6 C         140.5308  139.8468  160.5542 C.ar    1  UNL1        0.0180
      7 O         138.5950  139.1721  167.9647 O.2     1  UNL1       -0.2699
      8 C         139.7946  139.8642  167.3885 C.2     1  UNL1        0.2494
      9 N         140.1554  139.6639  165.9464 N.am    1  UNL1       -0.2660
     10 C         141.3550  140.3560  165.3702 C.3     1  UNL1        0.1160
     11 C         141.7157  140.1556  163.9281 C.3     1  UNL1        0.1197
     12 N         140.8768  139.2632  163.0621 N.am    1  UNL1       -0.2555
     13 C         139.6772  138.5711  163.6383 C.2     1  UNL1        0.2497
     14 O         138.8384  137.6786  162.7724 O.2     1  UNL1       -0.2727
     15 C         139.3165  138.7714  165.0804 C.3     1  UNL1        0.1799
     16 C         140.6335  140.7567  168.2545 C.ar    1  UNL1        0.0536
     17 C         140.2835  142.2083  168.3967 C.ar    1  UNL1        0.0054
     18 C         141.1223  143.1006  169.2627 C.ar    1  UNL1        0.0115
     19 C         142.3112  142.5414  169.9864 C.ar    1  UNL1        0.0577
     20 CL        143.1501  143.4339  170.8525 Cl      1  UNL1       -0.0822
     21 C         142.6612  141.0898  169.8443 C.ar    1  UNL1        0.0115
     22 C         141.8224  140.1974  168.9783 C.ar    1  UNL1        0.0054
     23 O         142.3198  138.4619  157.2937 O.3     1  UNL1       -0.4791
     24 C         143.4992  139.1808  156.7087 C.3     1  UNL1        0.1687
     25 C         144.0914  138.7180  155.4106 C.3     1  UNL1        0.0609
     26 C         145.2708  139.4369  154.8257 C.3     1  UNL1        0.0758
     27 N         145.8579  140.6187  155.5388 N.3     1  UNL1       -0.2737
     28 C         145.2657  141.0816  156.8369 C.3     1  UNL1        0.0758
     29 C         144.0864  140.3627  157.4219 C.3     1  UNL1        0.0609
     30 C         147.0373  141.3376  154.9538 C.3     1  UNL1        0.0575
     31 C         148.3872  141.7496  155.4618 C.3     1  UNL1        0.0160
     32 C         148.7052  142.3543  154.1266 C.3     1  UNL1        0.0028
     33 C         147.3553  141.9425  153.6185 C.3     1  UNL1        0.0160
@<TRIPOS>BOND
     1     7     8    2
     2     8    16    1
     3    16    17   ar
     4    17    18   ar
     5    18    19   ar
     6    19    20    1
     7    19    21   ar
     8    21    22   ar
     9     8     9   am
    10     9    10    1
    11    10    11    1
    12    11    12    1
    13    12     1    1
    14     1     2   ar
    15     2     3   ar
    16     3     4   ar
    17     4    23    1
    18    23    24    1
    19    24    25    1
    20    25    26    1
    21    26    27    1
    22    27    30    1
    23    30    31    1
    24    31    32    1
    25    32    33    1
    26    27    28    1
    27    28    29    1
    28     4     5   ar
    29     5     6   ar
    30    12    13   am
    31    13    14    2
    32    13    15    1
    33    22    16   ar
    34    15     9    1
    35     6     1   ar
    36    29    24    1
    37    33    30    1
@<TRIPOS>MOLECULE
*****
 33 37 0 0 0
SMALL
GASTEIGER

@<TRIPOS>ATOM
      1 C         139.4858  141.4554  161.3411 C.ar    1  UNL1        0.0541
      2 C         138.5184  142.4676  160.8029 C.ar    1  UNL1        0.0180
      3 C         138.4740  142.7541  159.3311 C.ar    1  UNL1        0.0382
      4 C         139.3969  142.0284  158.3976 C.ar    1  UNL1        0.1385
      5 C         140.3644  141.0162  158.9358 C.ar    1  UNL1        0.0382
      6 C         140.4088  140.7297  160.4075 C.ar    1  UNL1        0.0180
      7 O         138.7755  139.2519  167.8133 O.2     1  UNL1       -0.2699
      8 C         139.6638  140.3094  167.2279 C.2     1  UNL1        0.2494
      9 N         139.6193  140.5959  165.7562 N.am    1  UNL1       -0.2660
     10 C         140.5075  141.6534  165.1708 C.3     1  UNL1        0.1160
     11 C         140.4630  141.9399  163.6990 C.3     1  UNL1        0.1197
     12 N         139.5303  141.1689  162.8127 N.am    1  UNL1       -0.2555
     13 C         138.6421  140.1114  163.3982 C.2     1  UNL1        0.2497
     14 O         137.7094  139.3404  162.5119 O.2     1  UNL1       -0.2727
     15 C         138.6865  139.8249  164.8698 C.3     1  UNL1        0.1799
     16 C         140.5965  141.0805  168.1142 C.ar    1  UNL1        0.0536
     17 C         141.9697  140.5491  168.4007 C.ar    1  UNL1        0.0054
     18 C         142.9023  141.3202  169.2870 C.ar    1  UNL1        0.0115
     19 C         142.4619  142.6225  169.8869 C.ar    1  UNL1        0.0577
     20 CL        143.3946  143.3935  170.7733 Cl      1  UNL1       -0.0822
     21 C         141.0887  143.1538  169.6005 C.ar    1  UNL1        0.0115
     22 C         140.1560  142.3828  168.7141 C.ar    1  UNL1        0.0054
     23 O         139.3524  142.3149  156.9259 O.3     1  UNL1       -0.4791
     24 C         139.3581  143.7331  156.4374 C.3     1  UNL1        0.1687
     25 C         140.5257  144.6253  156.7384 C.3     1  UNL1        0.0609
     26 C         140.5314  146.0436  156.2499 C.3     1  UNL1        0.0758
     27 N         139.3695  146.5695  155.4604 N.3     1  UNL1       -0.2737
     28 C         138.2018  145.6773  155.1594 C.3     1  UNL1        0.0758
     29 C         138.1962  144.2591  155.6479 C.3     1  UNL1        0.0609
     30 C         139.3752  147.9877  154.9719 C.3     1  UNL1        0.0575
     31 C         138.8305  149.2882  155.4839 C.3     1  UNL1        0.0160
     32 C         139.3832  149.9934  154.2810 C.3     1  UNL1        0.0028
     33 C         139.9279  148.6930  153.7689 C.3     1  UNL1        0.0160
@<TRIPOS>BOND
     1     7     8    2
     2     8    16    1
     3    16    17   ar
     4    17    18   ar
     5    18    19   ar
     6    19    20    1
     7    19    21   ar
     8    21    22   ar
     9     8     9   am
    10     9    10    1
    11    10    11    1
    12    11    12    1
    13    12     1    1
    14     1     2   ar
    15     2     3   ar
    16     3     4   ar
    17     4    23    1
    18    23    24    1
    19    24    25    1
    20    25    26    1
    21    26    27    1
    22    27    30    1
    23    30    31    1
    24    31    32    1
    25    32    33    1
    26    27    28    1
    27    28    29    1
    28     4     5   ar
    29     5     6   ar
    30    12    13   am
    31    13    14    2
    32    13    15    1
    33    22    16   ar
    34    15     9    1
    35     6     1   ar
    36    29    24    1
    37    33    30    1
@<TRIPOS>MOLECULE
*****
 33 37 0 0 0
SMALL
GASTEIGER

@<TRIPOS>ATOM
      1 C         140.6275  138.4074  158.5461 C.ar    1  UNL1        0.0541
      2 C         139.8020  137.7238  157.4967 C.ar    1  UNL1        0.0180
      3 C         140.4684  137.1031  156.3047 C.ar    1  UNL1        0.0382
      4 C         141.9603  137.1660  156.1623 C.ar    1  UNL1        0.1385
      5 C         142.7858  137.8496  157.2117 C.ar    1  UNL1        0.0382
      6 C         142.1194  138.4702  158.4036 C.ar    1  UNL1        0.0180
      7 O         136.7374  141.7372  163.1319 O.2     1  UNL1       -0.2699
      8 C         137.9619  140.8902  163.3137 C.2     1  UNL1        0.2494
      9 N         138.6283  140.2695  162.1218 N.am    1  UNL1       -0.2660
     10 C         139.8529  139.4225  162.3037 C.3     1  UNL1        0.1160
     11 C         140.5192  138.8018  161.1117 C.3     1  UNL1        0.1197
     12 N         139.9611  139.0281  159.7380 N.am    1  UNL1       -0.2555
     13 C         138.7365  139.8751  159.5561 C.2     1  UNL1        0.2497
     14 O         138.1784  140.1014  158.1824 O.2     1  UNL1       -0.2727
     15 C         138.0702  140.4958  160.7480 C.3     1  UNL1        0.1799
     16 C         138.5201  140.6639  164.6876 C.ar    1  UNL1        0.0536
     17 C         138.1245  139.4445  165.4663 C.ar    1  UNL1        0.0054
     18 C         138.6827  139.2182  166.8400 C.ar    1  UNL1        0.0115
     19 C         139.6364  140.2114  167.4350 C.ar    1  UNL1        0.0577
     20 CL        140.1945  139.9851  168.8089 Cl      1  UNL1       -0.0822
     21 C         140.0320  141.4308  166.6563 C.ar    1  UNL1        0.0115
     22 C         139.4738  141.6571  165.2826 C.ar    1  UNL1        0.0054
     23 O         142.6267  136.5453  154.9704 O.3     1  UNL1       -0.4791
     24 C         142.9046  135.0714  154.9495 C.3     1  UNL1        0.1687
     25 C         143.7699  134.4562  156.0091 C.3     1  UNL1        0.0609
     26 C         144.0478  132.9824  155.9882 C.3     1  UNL1        0.0758
     27 N         143.4605  132.1236  154.9076 N.3     1  UNL1       -0.2737
     28 C         142.5952  132.7388  153.8479 C.3     1  UNL1        0.0758
     29 C         142.3172  134.2127  153.8689 C.3     1  UNL1        0.0609
     30 C         143.7385  130.6498  154.8867 C.3     1  UNL1        0.0575
     31 C         142.9554  129.4280  154.5072 C.3     1  UNL1        0.0160
     32 C         144.1315  128.5654  154.8571 C.3     1  UNL1        0.0028
     33 C         144.9147  129.7871  155.2366 C.3     1  UNL1        0.0160
@<TRIPOS>BOND
     1     7     8    2
     2     8    16    1
     3    16    17   ar
     4    17    18   ar
     5    18    19   ar
     6    19    20    1
     7    19    21   ar
     8    21    22   ar
     9     8     9   am
    10     9    10    1
    11    10    11    1
    12    11    12    1
    13    12     1    1
    14     1     2   ar
    15     2     3   ar
    16     3     4   ar
    17     4    23    1
    18    23    24    1
    19    24    25    1
    20    25    26    1
    21    26    27    1
    22    27    30    1
    23    30    31    1
    24    31    32    1
    25    32    33    1
    26    27    28    1
    27    28    29    1
    28     4     5   ar
    29     5     6   ar
    30    12    13   am
    31    13    14    2
    32    13    15    1
    33    22    16   ar
    34    15     9    1
    35     6     1   ar
    36    29    24    1
    37    33    30    1
@<TRIPOS>MOLECULE
*****
 33 37 0 0 0
SMALL
GASTEIGER

@<TRIPOS>ATOM
      1 C         140.7143  139.8223  160.4083 C.ar    1  UNL1        0.0541
      2 C         139.6577  138.8562  159.9606 C.ar    1  UNL1        0.0180
      3 C         139.7566  138.2088  158.6111 C.ar    1  UNL1        0.0382
      4 C         140.9120  138.5276  157.7092 C.ar    1  UNL1        0.1385
      5 C         141.9686  139.4937  158.1568 C.ar    1  UNL1        0.0382
      6 C         141.8697  140.1410  159.5063 C.ar    1  UNL1        0.0180
      7 O         139.5869  143.7114  165.9628 O.2     1  UNL1       -0.2699
      8 C         140.3190  142.4116  165.8063 C.2     1  UNL1        0.2494
      9 N         140.4178  141.7642  164.4568 N.am    1  UNL1       -0.2660
     10 C         141.1499  140.4644  164.3003 C.3     1  UNL1        0.1160
     11 C         141.2487  139.8171  162.9507 C.3     1  UNL1        0.1197
     12 N         140.6154  140.4696  161.7577 N.am    1  UNL1       -0.2555
     13 C         139.8833  141.7694  161.9143 C.2     1  UNL1        0.2497
     14 O         139.2501  142.4219  160.7213 O.2     1  UNL1       -0.2727
     15 C         139.7845  142.4167  163.2638 C.3     1  UNL1        0.1799
     16 C         140.9523  141.7591  166.9993 C.ar    1  UNL1        0.0536
     17 C         140.1805  140.7546  167.8026 C.ar    1  UNL1        0.0054
     18 C         140.8138  140.1021  168.9956 C.ar    1  UNL1        0.0115
     19 C         142.2189  140.4542  169.3853 C.ar    1  UNL1        0.0577
     20 CL        142.8521  139.8017  170.5783 Cl      1  UNL1       -0.0822
     21 C         142.9906  141.4587  168.5820 C.ar    1  UNL1        0.0115
     22 C         142.3573  142.1112  167.3890 C.ar    1  UNL1        0.0054
     23 O         141.0108  137.8803  156.3597 O.3     1  UNL1       -0.4791
     24 C         141.7001  136.5562  156.2117 C.3     1  UNL1        0.1687
     25 C         142.9703  136.2839  156.9615 C.3     1  UNL1        0.0609
     26 C         143.6595  134.9599  156.8135 C.3     1  UNL1        0.0758
     27 N         143.0786  133.9082  155.9155 N.3     1  UNL1       -0.2737
     28 C         141.8083  134.1805  155.1656 C.3     1  UNL1        0.0758
     29 C         141.1190  135.5045  155.3137 C.3     1  UNL1        0.0609
     30 C         143.7678  132.5842  155.7675 C.3     1  UNL1        0.0575
     31 C         143.6054  131.3992  154.8623 C.3     1  UNL1        0.0160
     32 C         144.7426  130.7118  155.5581 C.3     1  UNL1        0.0028
     33 C         144.9051  131.8967  156.4633 C.3     1  UNL1        0.0160
@<TRIPOS>BOND
     1     7     8    2
     2     8    16    1
     3    16    17   ar
     4    17    18   ar
     5    18    19   ar
     6    19    20    1
     7    19    21   ar
     8    21    22   ar
     9     8     9   am
    10     9    10    1
    11    10    11    1
    12    11    12    1
    13    12     1    1
    14     1     2   ar
    15     2     3   ar
    16     3     4   ar
    17     4    23    1
    18    23    24    1
    19    24    25    1
    20    25    26    1
    21    26    27    1
    22    27    30    1
    23    30    31    1
    24    31    32    1
    25    32    33    1
    26    27    28    1
    27    28    29    1
    28     4     5   ar
    29     5     6   ar
    30    12    13   am
    31    13    14    2
    32    13    15    1
    33    22    16   ar
    34    15     9    1
    35     6     1   ar
    36    29    24    1
    37    33    30    1
@<TRIPOS>MOLECULE
*****
 33 37 0 0 0
SMALL
GASTEIGER

@<TRIPOS>ATOM
      1 C         141.7028  139.7863  159.2257 C.ar    1  UNL1        0.0541
      2 C         142.9383  139.6281  158.3900 C.ar    1  UNL1        0.0180
      3 C         142.9480  138.6639  157.2408 C.ar    1  UNL1        0.0382
      4 C         141.7223  137.8581  156.9275 C.ar    1  UNL1        0.1385
      5 C         140.4868  138.0164  157.7633 C.ar    1  UNL1        0.0382
      6 C         140.4770  138.9805  158.9123 C.ar    1  UNL1        0.0180
      7 O         141.5916  145.1182  163.5626 O.2     1  UNL1       -0.2699
      8 C         141.6638  143.6426  163.8222 C.2     1  UNL1        0.2494
      9 N         141.6735  142.6785  162.6731 N.am    1  UNL1       -0.2660
     10 C         141.7457  141.2029  162.9327 C.3     1  UNL1        0.1160
     11 C         141.7555  140.2388  161.7835 C.3     1  UNL1        0.1197
     12 N         141.6930  140.7504  160.3748 N.am    1  UNL1       -0.2555
     13 C         141.6208  142.2260  160.1152 C.2     1  UNL1        0.2497
     14 O         141.5584  142.7375  158.7066 O.2     1  UNL1       -0.2727
     15 C         141.6111  143.1901  161.2643 C.3     1  UNL1        0.1799
     16 C         141.7262  143.1311  165.2309 C.ar    1  UNL1        0.0536
     17 C         140.4719  143.0248  166.0465 C.ar    1  UNL1        0.0054
     18 C         140.5344  142.5133  167.4552 C.ar    1  UNL1        0.0115
     19 C         141.8512  142.1080  168.0483 C.ar    1  UNL1        0.0577
     20 CL        141.9136  141.5965  169.4570 Cl      1  UNL1       -0.0822
     21 C         143.1055  142.2143  167.2327 C.ar    1  UNL1        0.0115
     22 C         143.0431  142.7258  165.8240 C.ar    1  UNL1        0.0054
     23 O         141.7320  136.8941  155.7784 O.3     1  UNL1       -0.4791
     24 C         142.0592  135.4493  156.0143 C.3     1  UNL1        0.1687
     25 C         143.1081  135.0720  157.0179 C.3     1  UNL1        0.0609
     26 C         143.4352  133.6273  157.2538 C.3     1  UNL1        0.0758
     27 N         142.7135  132.5598  156.4860 N.3     1  UNL1       -0.2737
     28 C         141.6645  132.9371  155.4823 C.3     1  UNL1        0.0758
     29 C         141.3374  134.3818  155.2464 C.3     1  UNL1        0.0609
     30 C         143.0406  131.1150  156.7219 C.3     1  UNL1        0.0575
     31 C         143.9299  130.3704  157.6731 C.3     1  UNL1        0.0160
     32 C         143.5033  129.0719  157.0554 C.3     1  UNL1        0.0028
     33 C         142.6140  129.8163  156.1042 C.3     1  UNL1        0.0160
@<TRIPOS>BOND
     1     7     8    2
     2     8    16    1
     3    16    17   ar
     4    17    18   ar
     5    18    19   ar
     6    19    20    1
     7    19    21   ar
     8    21    22   ar
     9     8     9   am
    10     9    10    1
    11    10    11    1
    12    11    12    1
    13    12     1    1
    14     1     2   ar
    15     2     3   ar
    16     3     4   ar
    17     4    23    1
    18    23    24    1
    19    24    25    1
    20    25    26    1
    21    26    27    1
    22    27    30    1
    23    30    31    1
    24    31    32    1
    25    32    33    1
    26    27    28    1
    27    28    29    1
    28     4     5   ar
    29     5     6   ar
    30    12    13   am
    31    13    14    2
    32    13    15    1
    33    22    16   ar
    34    15     9    1
    35     6     1   ar
    36    29    24    1
    37    33    30    1
@<TRIPOS>MOLECULE
*****
 33 37 0 0 0
SMALL
GASTEIGER

@<TRIPOS>ATOM
      1 C         142.0121  143.3101  159.9741 C.ar    1  UNL1        0.0541
      2 C         141.3492  142.9716  161.2764 C.ar    1  UNL1        0.0180
      3 C         142.1344  142.3045  162.3666 C.ar    1  UNL1        0.0382
      4 C         143.5825  141.9759  162.1545 C.ar    1  UNL1        0.1385
      5 C         144.2455  142.3145  160.8522 C.ar    1  UNL1        0.0382
      6 C         143.4603  142.9816  159.7620 C.ar    1  UNL1        0.0180
      7 O         137.8209  145.2101  154.8679 O.2     1  UNL1       -0.2699
      8 C         138.8714  145.9785  155.6135 C.2     1  UNL1        0.2494
      9 N         139.6566  145.3115  156.7037 N.am    1  UNL1       -0.2660
     10 C         140.7071  146.0799  157.4493 C.3     1  UNL1        0.1160
     11 C         141.4922  145.4128  158.5395 C.3     1  UNL1        0.1197
     12 N         141.2269  143.9772  158.8840 N.am    1  UNL1       -0.2555
     13 C         140.1765  143.2087  158.1384 C.2     1  UNL1        0.2497
     14 O         139.9112  141.7732  158.4829 O.2     1  UNL1       -0.2727
     15 C         139.3913  143.8758  157.0482 C.3     1  UNL1        0.1799
     16 C         139.1367  147.4142  155.2689 C.ar    1  UNL1        0.0536
     17 C         140.0423  147.7554  154.1230 C.ar    1  UNL1        0.0054
     18 C         140.3076  149.1910  153.7784 C.ar    1  UNL1        0.0115
     19 C         139.6672  150.2853  154.5799 C.ar    1  UNL1        0.0577
     20 CL        139.9324  151.7210  154.2354 Cl      1  UNL1       -0.0822
     21 C         138.7615  149.9441  155.7259 C.ar    1  UNL1        0.0115
     22 C         138.4963  148.5085  156.0704 C.ar    1  UNL1        0.0054
     23 O         144.3677  141.3089  163.2446 O.3     1  UNL1       -0.4791
     24 C         143.7920  141.2016  164.6256 C.3     1  UNL1        0.1687
     25 C         143.7989  142.3940  165.5357 C.3     1  UNL1        0.0609
     26 C         143.2233  142.2867  166.9166 C.3     1  UNL1        0.0758
     27 N         142.6407  140.9872  167.3876 N.3     1  UNL1       -0.2737
     28 C         142.6338  139.7948  166.4775 C.3     1  UNL1        0.0758
     29 C         143.2095  139.9020  165.0965 C.3     1  UNL1        0.0609
     30 C         142.0651  140.8800  168.7685 C.3     1  UNL1        0.0575
     31 C         141.3561  139.8080  169.5419 C.3     1  UNL1        0.0160
     32 C         141.2510  140.7284  170.7215 C.3     1  UNL1        0.0028
     33 C         141.9599  141.8005  169.9483 C.3     1  UNL1        0.0160
@<TRIPOS>BOND
     1     7     8    2
     2     8    16    1
     3    16    17   ar
     4    17    18   ar
     5    18    19   ar
     6    19    20    1
     7    19    21   ar
     8    21    22   ar
     9     8     9   am
    10     9    10    1
    11    10    11    1
    12    11    12    1
    13    12     1    1
    14     1     2   ar
    15     2     3   ar
    16     3     4   ar
    17     4    23    1
    18    23    24    1
    19    24    25    1
    20    25    26    1
    21    26    27    1
    22    27    30    1
    23    30    31    1
    24    31    32    1
    25    32    33    1
    26    27    28    1
    27    28    29    1
    28     4     5   ar
    29     5     6   ar
    30    12    13   am
    31    13    14    2
    32    13    15    1
    33    22    16   ar
    34    15     9    1
    35     6     1   ar
    36    29    24    1
    37    33    30    1
@<TRIPOS>MOLECULE
*****
 33 37 0 0 0
SMALL
GASTEIGER

@<TRIPOS>ATOM
      1 C         142.7561  140.3307  160.0633 C.ar    1  UNL1        0.0541
      2 C         141.5083  141.0516  160.4798 C.ar    1  UNL1        0.0180
      3 C         141.5198  141.9295  161.6961 C.ar    1  UNL1        0.0382
      4 C         142.7791  142.0864  162.4959 C.ar    1  UNL1        0.1385
      5 C         144.0268  141.3655  162.0794 C.ar    1  UNL1        0.0382
      6 C         144.0154  140.4877  160.8632 C.ar    1  UNL1        0.0180
      7 O         142.7806  137.4316  153.8309 O.2     1  UNL1       -0.2699
      8 C         142.7103  136.8194  155.1984 C.2     1  UNL1        0.2494
      9 N         142.7217  137.6972  156.4146 N.am    1  UNL1       -0.2660
     10 C         142.6514  137.0849  157.7822 C.3     1  UNL1        0.1160
     11 C         142.6628  137.9629  158.9984 C.3     1  UNL1        0.1197
     12 N         142.7446  139.4529  158.8471 N.am    1  UNL1       -0.2555
     13 C         142.8150  140.0652  157.4796 C.2     1  UNL1        0.2497
     14 O         142.8968  141.5552  157.3282 O.2     1  UNL1       -0.2727
     15 C         142.8035  139.1873  156.2633 C.3     1  UNL1        0.1799
     16 C         142.6284  135.3292  155.3497 C.ar    1  UNL1        0.0536
     17 C         141.3190  134.6257  155.1485 C.ar    1  UNL1        0.0054
     18 C         141.2373  133.1356  155.2998 C.ar    1  UNL1        0.0115
     19 C         142.4649  132.3491  155.6523 C.ar    1  UNL1        0.0577
     20 CL        142.3831  130.8589  155.8036 Cl      1  UNL1       -0.0822
     21 C         143.7743  133.0526  155.8535 C.ar    1  UNL1        0.0115
     22 C         143.8561  134.5426  155.7022 C.ar    1  UNL1        0.0054
     23 O         142.7905  142.9642  163.7121 O.3     1  UNL1       -0.4791
     24 C         142.2911  142.4350  165.0238 C.3     1  UNL1        0.1687
     25 C         141.0058  142.9505  165.6001 C.3     1  UNL1        0.0609
     26 C         140.5064  142.4212  166.9118 C.3     1  UNL1        0.0758
     27 N         141.2924  141.3765  167.6472 N.3     1  UNL1       -0.2737
     28 C         142.5778  140.8610  167.0708 C.3     1  UNL1        0.0758
     29 C         143.0772  141.3902  165.7592 C.3     1  UNL1        0.0609
     30 C         140.7930  140.8473  168.9588 C.3     1  UNL1        0.0575
     31 C         141.2460  139.7844  169.9154 C.3     1  UNL1        0.0160
     32 C         140.0868  140.0988  170.8138 C.3     1  UNL1        0.0028
     33 C         139.6337  141.1617  169.8573 C.3     1  UNL1        0.0160
@<TRIPOS>BOND
     1     7     8    2
     2     8    16    1
     3    16    17   ar
     4    17    18   ar
     5    18    19   ar
     6    19    20    1
     7    19    21   ar
     8    21    22   ar
     9     8     9   am
    10     9    10    1
    11    10    11    1
    12    11    12    1
    13    12     1    1
    14     1     2   ar
    15     2     3   ar
    16     3     4   ar
    17     4    23    1
    18    23    24    1
    19    24    25    1
    20    25    26    1
    21    26    27    1
    22    27    30    1
    23    30    31    1
    24    31    32    1
    25    32    33    1
    26    27    28    1
    27    28    29    1
    28     4     5   ar
    29     5     6   ar
    30    12    13   am
    31    13    14    2
    32    13    15    1
    33    22    16   ar
    34    15     9    1
    35     6     1   ar
    36    29    24    1
    37    33    30    1
@<TRIPOS>MOLECULE
*****
 33 37 0 0 0
SMALL
GASTEIGER

@<TRIPOS>ATOM
      1 C         142.1577  138.6864  159.9461 C.ar    1  UNL1        0.0541
      2 C         143.4050  139.5122  160.0576 C.ar    1  UNL1        0.0180
      3 C         144.1177  139.6203  161.3730 C.ar    1  UNL1        0.0382
      4 C         143.5832  138.9026  162.5769 C.ar    1  UNL1        0.1385
      5 C         142.3360  138.0768  162.4653 C.ar    1  UNL1        0.0382
      6 C         141.6232  137.9687  161.1500 C.ar    1  UNL1        0.0180
      7 O         139.8292  137.3334  153.6217 O.2     1  UNL1       -0.2699
      8 C         139.3066  138.2538  154.6846 C.2     1  UNL1        0.2494
      9 N         140.0193  138.3620  155.9999 N.am    1  UNL1       -0.2660
     10 C         139.4967  139.2825  157.0627 C.3     1  UNL1        0.1160
     11 C         140.2095  139.3906  158.3781 C.3     1  UNL1        0.1197
     12 N         141.4449  138.5782  158.6307 N.am    1  UNL1       -0.2555
     13 C         141.9676  137.6577  157.5679 C.2     1  UNL1        0.2497
     14 O         143.2030  136.8454  157.8204 O.2     1  UNL1       -0.2727
     15 C         141.2548  137.5496  156.2525 C.3     1  UNL1        0.1799
     16 C         138.0711  139.0662  154.4319 C.ar    1  UNL1        0.0536
     17 C         138.1893  140.5111  154.0469 C.ar    1  UNL1        0.0054
     18 C         136.9538  141.3234  153.7943 C.ar    1  UNL1        0.0115
     19 C         135.6002  140.6908  153.9268 C.ar    1  UNL1        0.0577
     20 CL        134.3648  141.5032  153.6742 Cl      1  UNL1       -0.0822
     21 C         135.4820  139.2459  154.3118 C.ar    1  UNL1        0.0115
     22 C         136.7175  138.4336  154.5644 C.ar    1  UNL1        0.0054
     23 O         144.2960  139.0108  163.8922 O.3     1  UNL1       -0.4791
     24 C         143.7002  139.8231  165.0036 C.3     1  UNL1        0.1687
     25 C         143.8384  141.3167  164.9983 C.3     1  UNL1        0.0609
     26 C         143.2425  142.1290  166.1096 C.3     1  UNL1        0.0758
     27 N         142.5085  141.4477  167.2263 N.3     1  UNL1       -0.2737
     28 C         142.3703  139.9540  167.2317 C.3     1  UNL1        0.0758
     29 C         142.9661  139.1417  166.1203 C.3     1  UNL1        0.0609
     30 C         141.9127  142.2600  168.3377 C.3     1  UNL1        0.0575
     31 C         140.5697  142.8744  168.6003 C.3     1  UNL1        0.0160
     32 C         141.0701  143.4088  169.9094 C.3     1  UNL1        0.0028
     33 C         142.4131  142.7945  169.6469 C.3     1  UNL1        0.0160
@<TRIPOS>BOND
     1     7     8    2
     2     8    16    1
     3    16    17   ar
     4    17    18   ar
     5    18    19   ar
     6    19    20    1
     7    19    21   ar
     8    21    22   ar
     9     8     9   am
    10     9    10    1
    11    10    11    1
    12    11    12    1
    13    12     1    1
    14     1     2   ar
    15     2     3   ar
    16     3     4   ar
    17     4    23    1
    18    23    24    1
    19    24    25    1
    20    25    26    1
    21    26    27    1
    22    27    30    1
    23    30    31    1
    24    31    32    1
    25    32    33    1
    26    27    28    1
    27    28    29    1
    28     4     5   ar
    29     5     6   ar
    30    12    13   am
    31    13    14    2
    32    13    15    1
    33    22    16   ar
    34    15     9    1
    35     6     1   ar
    36    29    24    1
    37    33    30    1
