@<TRIPOS>MOLECULE
*****
 31 34 0 0 0
SMALL
GASTEIGER

@<TRIPOS>ATOM
      1 N         140.8310  140.5489  160.9554 N.am    1  UNL1       -0.2419
      2 C         140.6673  140.2614  159.4924 C.2     1  UNL1        0.2504
      3 O         141.3167  141.1527  158.4756 O.2     1  UNL1       -0.2726
      4 C         139.8541  139.0826  159.0461 C.3     1  UNL1        0.1754
      5 N         139.2046  138.1913  160.0629 N.pl3   1  UNL1       -0.3084
      6 C         139.3683  138.4788  161.5260 C.ar    1  UNL1        0.1611
      7 N         138.7189  137.5876  162.5427 N.ar    1  UNL1       -0.2249
      8 C         138.8826  137.8751  164.0058 C.ar    1  UNL1        0.1195
      9 C         139.6958  139.0539  164.4520 C.ar    1  UNL1        0.1034
     10 N         140.3453  139.9451  163.4353 N.ar    1  UNL1       -0.2258
     11 C         140.1815  139.6576  161.9723 C.ar    1  UNL1        0.1691
     12 H         138.6709  137.4176  159.7700 H       1  UNL1        0.1487
     13 C         143.2706  144.0853  162.2943 C.3     1  UNL1        0.1154
     14 C         141.7989  144.2393  162.0484 C.3     1  UNL1        0.0313
     15 C         140.9857  143.0605  161.6021 C.3     1  UNL1        0.0227
     16 C         141.6442  141.7277  161.4017 C.3     1  UNL1        0.0814
     17 C         143.1158  141.5737  161.6476 C.3     1  UNL1        0.0227
     18 C         143.9290  142.7525  162.0939 C.3     1  UNL1        0.0313
     19 C         144.0495  145.6987  164.1759 C.3     1  UNL1        0.1740
     20 O         144.0838  145.2640  162.7406 O.3     1  UNL1       -0.3536
     21 C         139.8595  139.3414  165.9151 C.ar    1  UNL1        0.0384
     22 C         141.2034  139.7279  166.4577 C.ar    1  UNL1        0.0044
     23 C         141.3672  140.0154  167.9208 C.ar    1  UNL1        0.0171
     24 C         140.1869  139.9163  168.8413 C.ar    1  UNL1        0.0830
     25 N         138.8430  139.5298  168.2986 N.ar    1  UNL1       -0.2458
     26 C         138.6793  139.2423  166.8356 C.ar    1  UNL1        0.1000
     27 C         140.3506  140.2038  170.3043 C.3     1  UNL1        0.1232
     28 C         138.9696  140.7880  170.3440 C.3     1  UNL1        0.0355
     29 C         141.7315  139.6196  170.2646 C.3     1  UNL1        0.0355
     30 O         140.5143  140.4913  171.7674 O.3     1  UNL1       -0.3812
     31 H         139.7076  140.9095  172.1069 H       1  UNL1        0.2107
@<TRIPOS>BOND
     1    19    20    1
     2    13    20    1
     3    13    14    1
     4    14    15    1
     5    15    16    1
     6    16     1    1
     7     1     2   am
     8     2     3    2
     9     2     4    1
    10     4     5    1
    11     5     6    1
    12     6     7   ar
    13     7     8   ar
    14     8     9   ar
    15     9    21    1
    16    21    22   ar
    17    22    23   ar
    18    23    24   ar
    19    24    27    1
    20    27    28    1
    21    27    29    1
    22    27    30    1
    23    24    25   ar
    24    25    26   ar
    25     9    10   ar
    26    10    11   ar
    27    16    17    1
    28    17    18    1
    29    18    13    1
    30    11     1    1
    31    11     6   ar
    32    26    21   ar
    33     5    12    1
    34    30    31    1
@<TRIPOS>MOLECULE
*****
 31 34 0 0 0
SMALL
GASTEIGER

@<TRIPOS>ATOM
      1 N         141.1350  143.2658  161.0661 N.am    1  UNL1       -0.2419
      2 C         141.0567  144.1005  159.8223 C.2     1  UNL1        0.2504
      3 O         141.7288  143.6365  158.5641 O.2     1  UNL1       -0.2726
      4 C         140.3063  145.3992  159.8366 C.3     1  UNL1        0.1754
      5 N         139.6342  145.8632  161.0947 N.pl3   1  UNL1       -0.3084
      6 C         139.7125  145.0285  162.3386 C.ar    1  UNL1        0.1611
      7 N         139.0404  145.4926  163.5967 N.ar    1  UNL1       -0.2249
      8 C         139.1186  144.6579  164.8406 C.ar    1  UNL1        0.1195
      9 C         139.8690  143.3592  164.8263 C.ar    1  UNL1        0.1034
     10 N         140.5412  142.8951  163.5681 N.ar    1  UNL1       -0.2258
     11 C         140.4629  143.7298  162.3243 C.ar    1  UNL1        0.1691
     12 H         139.1417  146.7156  161.1041 H       1  UNL1        0.1487
     13 C         143.3862  139.3696  161.0232 C.3     1  UNL1        0.1154
     14 C         144.0976  140.6430  161.3731 C.3     1  UNL1        0.0313
     15 C         143.3472  141.9418  161.3874 C.3     1  UNL1        0.0227
     16 C         141.8854  141.9671  161.0518 C.3     1  UNL1        0.0814
     17 C         141.1741  140.6937  160.7019 C.3     1  UNL1        0.0227
     18 C         141.9245  139.3950  160.6876 C.3     1  UNL1        0.0313
     19 C         143.5313  136.8621  160.3590 C.3     1  UNL1        0.1740
     20 O         144.1366  138.0709  161.0089 O.3     1  UNL1       -0.3536
     21 C         139.9473  142.5245  166.0702 C.ar    1  UNL1        0.0384
     22 C         140.4187  143.1367  167.3558 C.ar    1  UNL1        0.0044
     23 C         140.4970  142.3020  168.5997 C.ar    1  UNL1        0.0171
     24 C         140.1038  140.8551  168.5579 C.ar    1  UNL1        0.0830
     25 N         139.6325  140.2428  167.2722 N.ar    1  UNL1       -0.2458
     26 C         139.5542  141.0775  166.0283 C.ar    1  UNL1        0.1000
     27 C         140.1821  140.0204  169.8017 C.3     1  UNL1        0.1232
     28 C         141.6092  139.6834  169.4858 C.3     1  UNL1        0.0355
     29 C         138.7550  140.3573  170.1176 C.3     1  UNL1        0.0355
     30 O         140.2603  139.1857  171.0455 O.3     1  UNL1       -0.3812
     31 H         141.1473  138.8003  171.1210 H       1  UNL1        0.2107
@<TRIPOS>BOND
     1    19    20    1
     2    13    20    1
     3    13    14    1
     4    14    15    1
     5    15    16    1
     6    16     1    1
     7     1     2   am
     8     2     3    2
     9     2     4    1
    10     4     5    1
    11     5     6    1
    12     6     7   ar
    13     7     8   ar
    14     8     9   ar
    15     9    21    1
    16    21    22   ar
    17    22    23   ar
    18    23    24   ar
    19    24    27    1
    20    27    28    1
    21    27    29    1
    22    27    30    1
    23    24    25   ar
    24    25    26   ar
    25     9    10   ar
    26    10    11   ar
    27    16    17    1
    28    17    18    1
    29    18    13    1
    30    11     1    1
    31    11     6   ar
    32    26    21   ar
    33     5    12    1
    34    30    31    1
@<TRIPOS>MOLECULE
*****
 31 34 0 0 0
SMALL
GASTEIGER

@<TRIPOS>ATOM
      1 N         138.7989  142.5440  161.3991 N.am    1  UNL1       -0.2419
      2 C         137.8988  143.1566  162.4308 C.2     1  UNL1        0.2504
      3 O         137.7636  144.6480  162.5177 O.2     1  UNL1       -0.2726
      4 C         137.1339  142.2778  163.3756 C.3     1  UNL1        0.1754
      5 N         137.2692  140.7865  163.2888 N.pl3   1  UNL1       -0.3084
      6 C         138.1693  140.1738  162.2570 C.ar    1  UNL1        0.1611
      7 N         138.3046  138.6825  162.1701 N.ar    1  UNL1       -0.2249
      8 C         139.2047  138.0699  161.1384 C.ar    1  UNL1        0.1195
      9 C         139.9696  138.9487  160.1936 C.ar    1  UNL1        0.1034
     10 N         139.8343  140.4400  160.2804 N.ar    1  UNL1       -0.2258
     11 C         138.9342  141.0526  161.3122 C.ar    1  UNL1        0.1691
     12 H         136.7672  140.2098  163.9089 H       1  UNL1        0.1487
     13 C         141.0936  145.1802  158.5645 C.3     1  UNL1        0.1154
     14 C         141.4491  145.1573  160.0216 C.3     1  UNL1        0.0313
     15 C         140.6843  144.2785  160.9665 C.3     1  UNL1        0.0227
     16 C         139.5638  143.4227  160.4542 C.3     1  UNL1        0.0814
     17 C         139.2083  143.4457  158.9971 C.3     1  UNL1        0.0227
     18 C         139.9732  144.3245  158.0523 C.3     1  UNL1        0.0313
     19 C         142.1861  145.5703  156.2398 C.3     1  UNL1        0.1740
     20 O         141.8585  146.0590  157.6196 O.3     1  UNL1       -0.3536
     21 C         140.8697  138.3360  159.1618 C.ar    1  UNL1        0.0384
     22 C         140.3118  137.9153  157.8345 C.ar    1  UNL1        0.0044
     23 C         141.2120  137.3026  156.8028 C.ar    1  UNL1        0.0171
     24 C         142.6700  137.1107  157.0984 C.ar    1  UNL1        0.0830
     25 N         143.2278  137.5314  158.4258 N.ar    1  UNL1       -0.2458
     26 C         142.3277  138.1441  159.4574 C.ar    1  UNL1        0.1000
     27 C         143.5701  136.4981  156.0667 C.3     1  UNL1        0.1232
     28 C         143.2188  135.1303  156.5724 C.3     1  UNL1        0.0355
     29 C         143.9215  137.8659  155.5611 C.3     1  UNL1        0.0355
     30 O         144.4703  135.8855  155.0350 O.3     1  UNL1       -0.3812
     31 H         144.4501  134.9195  155.1209 H       1  UNL1        0.2107
@<TRIPOS>BOND
     1    19    20    1
     2    13    20    1
     3    13    14    1
     4    14    15    1
     5    15    16    1
     6    16     1    1
     7     1     2   am
     8     2     3    2
     9     2     4    1
    10     4     5    1
    11     5     6    1
    12     6     7   ar
    13     7     8   ar
    14     8     9   ar
    15     9    21    1
    16    21    22   ar
    17    22    23   ar
    18    23    24   ar
    19    24    27    1
    20    27    28    1
    21    27    29    1
    22    27    30    1
    23    24    25   ar
    24    25    26   ar
    25     9    10   ar
    26    10    11   ar
    27    16    17    1
    28    17    18    1
    29    18    13    1
    30    11     1    1
    31    11     6   ar
    32    26    21   ar
    33     5    12    1
    34    30    31    1
@<TRIPOS>MOLECULE
*****
 31 34 0 0 0
SMALL
GASTEIGER

@<TRIPOS>ATOM
      1 N         139.9162  141.8608  162.9076 N.am    1  UNL1       -0.2419
      2 C         139.0672  142.8066  163.7042 C.2     1  UNL1        0.2504
      3 O         139.2989  142.9626  165.1780 O.2     1  UNL1       -0.2726
      4 C         137.9865  143.5963  163.0272 C.3     1  UNL1        0.1754
      5 N         137.7548  143.4403  161.5535 N.pl3   1  UNL1       -0.3084
      6 C         138.6038  142.4945  160.7567 C.ar    1  UNL1        0.1611
      7 N         138.3720  142.3385  159.2830 N.ar    1  UNL1       -0.2249
      8 C         139.2210  141.3927  158.4863 C.ar    1  UNL1        0.1195
      9 C         140.3017  140.6029  159.1633 C.ar    1  UNL1        0.1034
     10 N         140.5334  140.7589  160.6371 N.ar    1  UNL1       -0.2258
     11 C         139.6844  141.7047  161.4337 C.ar    1  UNL1        0.1691
     12 H         137.0455  143.9587  161.1091 H       1  UNL1        0.1487
     13 C         143.1582  139.4915  164.9387 C.3     1  UNL1        0.1154
     14 C         141.7574  138.9572  164.8898 C.3     1  UNL1        0.0313
     15 C         140.6767  139.7470  164.2128 C.3     1  UNL1        0.0227
     16 C         140.9968  141.0710  163.5846 C.3     1  UNL1        0.0814
     17 C         142.3976  141.6052  163.6335 C.3     1  UNL1        0.0227
     18 C         143.4783  140.8154  164.3105 C.3     1  UNL1        0.0313
     19 C         143.9012  137.8037  166.7689 C.3     1  UNL1        0.1740
     20 O         144.2389  138.7017  165.6158 O.3     1  UNL1       -0.3536
     21 C         141.1506  139.6571  158.3666 C.ar    1  UNL1        0.0384
     22 C         140.5094  138.5421  157.5949 C.ar    1  UNL1        0.0044
     23 C         141.3584  137.5963  156.7981 C.ar    1  UNL1        0.0171
     24 C         142.8486  137.7655  156.7731 C.ar    1  UNL1        0.0830
     25 N         143.4898  138.8806  157.5449 N.ar    1  UNL1       -0.2458
     26 C         142.6409  139.8263  158.3416 C.ar    1  UNL1        0.1000
     27 C         143.6975  136.8198  155.9764 C.3     1  UNL1        0.1232
     28 C         144.2989  137.9799  155.2400 C.3     1  UNL1        0.0355
     29 C         143.0962  135.6596  156.7129 C.3     1  UNL1        0.0355
     30 O         144.5465  135.8740  155.1797 O.3     1  UNL1       -0.3812
     31 H         145.0962  136.3775  154.5590 H       1  UNL1        0.2107
@<TRIPOS>BOND
     1    19    20    1
     2    13    20    1
     3    13    14    1
     4    14    15    1
     5    15    16    1
     6    16     1    1
     7     1     2   am
     8     2     3    2
     9     2     4    1
    10     4     5    1
    11     5     6    1
    12     6     7   ar
    13     7     8   ar
    14     8     9   ar
    15     9    21    1
    16    21    22   ar
    17    22    23   ar
    18    23    24   ar
    19    24    27    1
    20    27    28    1
    21    27    29    1
    22    27    30    1
    23    24    25   ar
    24    25    26   ar
    25     9    10   ar
    26    10    11   ar
    27    16    17    1
    28    17    18    1
    29    18    13    1
    30    11     1    1
    31    11     6   ar
    32    26    21   ar
    33     5    12    1
    34    30    31    1
@<TRIPOS>MOLECULE
*****
 31 34 0 0 0
SMALL
GASTEIGER

@<TRIPOS>ATOM
      1 N         141.0037  142.6865  163.0482 N.am    1  UNL1       -0.2419
      2 C         141.0779  143.9627  163.8328 C.2     1  UNL1        0.2504
      3 O         140.5083  144.0251  165.2191 O.2     1  UNL1       -0.2726
      4 C         141.7216  145.1766  163.2311 C.3     1  UNL1        0.1754
      5 N         142.2912  145.1143  161.8449 N.pl3   1  UNL1       -0.3084
      6 C         142.2170  143.8379  161.0602 C.ar    1  UNL1        0.1611
      7 N         142.7866  143.7756  159.6740 N.ar    1  UNL1       -0.2249
      8 C         142.7124  142.4993  158.8895 C.ar    1  UNL1        0.1195
      9 C         142.0686  141.2854  159.4911 C.ar    1  UNL1        0.1034
     10 N         141.4991  141.3478  160.8774 N.ar    1  UNL1       -0.2258
     11 C         141.5733  142.6240  161.6619 C.ar    1  UNL1        0.1691
     12 H         142.7137  145.9110  161.4500 H       1  UNL1        0.1487
     13 C         139.0724  139.0447  164.8532 C.3     1  UNL1        0.1154
     14 C         138.2340  140.0597  164.1342 C.3     1  UNL1        0.0313
     15 C         138.8777  141.2736  163.5325 C.3     1  UNL1        0.0227
     16 C         140.3599  141.4726  163.6499 C.3     1  UNL1        0.0814
     17 C         141.1982  140.4576  164.3689 C.3     1  UNL1        0.0227
     18 C         140.5544  139.2437  164.9705 C.3     1  UNL1        0.0313
     19 C         137.6984  137.9386  166.7608 C.3     1  UNL1        0.1740
     20 O         138.4286  137.8308  165.4549 O.3     1  UNL1       -0.3536
     21 C         141.9945  140.0091  158.7065 C.ar    1  UNL1        0.0384
     22 C         140.6868  139.2870  158.5709 C.ar    1  UNL1        0.0044
     23 C         140.6126  138.0107  157.7862 C.ar    1  UNL1        0.0171
     24 C         141.8462  137.4565  157.1373 C.ar    1  UNL1        0.0830
     25 N         143.1539  138.1786  157.2730 N.ar    1  UNL1       -0.2458
     26 C         143.2281  139.4549  158.0576 C.ar    1  UNL1        0.1000
     27 C         141.7721  136.1802  156.3527 C.3     1  UNL1        0.1232
     28 C         140.4995  136.6484  155.7113 C.3     1  UNL1        0.0355
     29 C         143.0446  135.7121  156.9940 C.3     1  UNL1        0.0355
     30 O         141.6979  134.9040  155.5681 O.3     1  UNL1       -0.3812
     31 H         140.9061  134.9143  155.0079 H       1  UNL1        0.2107
@<TRIPOS>BOND
     1    19    20    1
     2    13    20    1
     3    13    14    1
     4    14    15    1
     5    15    16    1
     6    16     1    1
     7     1     2   am
     8     2     3    2
     9     2     4    1
    10     4     5    1
    11     5     6    1
    12     6     7   ar
    13     7     8   ar
    14     8     9   ar
    15     9    21    1
    16    21    22   ar
    17    22    23   ar
    18    23    24   ar
    19    24    27    1
    20    27    28    1
    21    27    29    1
    22    27    30    1
    23    24    25   ar
    24    25    26   ar
    25     9    10   ar
    26    10    11   ar
    27    16    17    1
    28    17    18    1
    29    18    13    1
    30    11     1    1
    31    11     6   ar
    32    26    21   ar
    33     5    12    1
    34    30    31    1
@<TRIPOS>MOLECULE
*****
 31 34 0 0 0
SMALL
GASTEIGER

@<TRIPOS>ATOM
      1 N         139.4950  143.5475  162.1708 N.am    1  UNL1       -0.2419
      2 C         139.3897  144.8956  162.8199 C.2     1  UNL1        0.2504
      3 O         139.0667  145.0014  164.2810 O.2     1  UNL1       -0.2726
      4 C         139.6076  146.1380  162.0081 C.3     1  UNL1        0.1754
      5 N         139.9306  146.0322  160.5472 N.pl3   1  UNL1       -0.3084
      6 C         140.0359  144.6840  159.8980 C.ar    1  UNL1        0.1611
      7 N         140.3589  144.5783  158.4370 N.ar    1  UNL1       -0.2249
      8 C         140.4641  143.2301  157.7879 C.ar    1  UNL1        0.1195
      9 C         140.2463  141.9877  158.5997 C.ar    1  UNL1        0.1034
     10 N         139.9233  142.0935  160.0607 N.ar    1  UNL1       -0.2258
     11 C         139.8180  143.4416  160.7098 C.ar    1  UNL1        0.1691
     12 H         140.0735  146.8476  160.0143 H       1  UNL1        0.1487
     13 C         138.8416  139.8203  164.6063 C.3     1  UNL1        0.1154
     14 C         140.1939  140.4686  164.5755 C.3     1  UNL1        0.0313
     15 C         140.4118  141.7110  163.7637 C.3     1  UNL1        0.0227
     16 C         139.2772  142.3051  162.9826 C.3     1  UNL1        0.0814
     17 C         137.9249  141.6568  163.0135 C.3     1  UNL1        0.0227
     18 C         137.7071  140.4144  163.8253 C.3     1  UNL1        0.0313
     19 C         137.8835  138.6533  166.7207 C.3     1  UNL1        0.1740
     20 O         138.6238  138.5780  165.4181 O.3     1  UNL1       -0.3536
     21 C         140.3516  140.6396  157.9505 C.ar    1  UNL1        0.0384
     22 C         141.6986  140.0736  157.6113 C.ar    1  UNL1        0.0044
     23 C         141.8039  138.7254  156.9621 C.ar    1  UNL1        0.0171
     24 C         140.5620  137.9432  156.6522 C.ar    1  UNL1        0.0830
     25 N         139.2149  138.5093  156.9914 N.ar    1  UNL1       -0.2458
     26 C         139.1097  139.8574  157.6406 C.ar    1  UNL1        0.1000
     27 C         140.6672  136.5951  156.0030 C.3     1  UNL1        0.1232
     28 C         142.0261  136.4088  156.6102 C.3     1  UNL1        0.0355
     29 C         139.3084  136.7815  155.3958 C.3     1  UNL1        0.0355
     30 O         140.7724  135.2470  155.3539 O.3     1  UNL1       -0.3812
     31 H         141.6236  134.8428  155.5842 H       1  UNL1        0.2107
@<TRIPOS>BOND
     1    19    20    1
     2    13    20    1
     3    13    14    1
     4    14    15    1
     5    15    16    1
     6    16     1    1
     7     1     2   am
     8     2     3    2
     9     2     4    1
    10     4     5    1
    11     5     6    1
    12     6     7   ar
    13     7     8   ar
    14     8     9   ar
    15     9    21    1
    16    21    22   ar
    17    22    23   ar
    18    23    24   ar
    19    24    27    1
    20    27    28    1
    21    27    29    1
    22    27    30    1
    23    24    25   ar
    24    25    26   ar
    25     9    10   ar
    26    10    11   ar
    27    16    17    1
    28    17    18    1
    29    18    13    1
    30    11     1    1
    31    11     6   ar
    32    26    21   ar
    33     5    12    1
    34    30    31    1
@<TRIPOS>MOLECULE
*****
 31 34 0 0 0
SMALL
GASTEIGER

@<TRIPOS>ATOM
      1 N         139.9204  143.2650  161.9974 N.am    1  UNL1       -0.2419
      2 C         139.4301  144.4646  162.7526 C.2     1  UNL1        0.2504
      3 O         138.6315  144.2848  164.0096 O.2     1  UNL1       -0.2726
      4 C         139.7385  145.8442  162.2509 C.3     1  UNL1        0.1754
      5 N         140.5371  146.0241  160.9940 N.pl3   1  UNL1       -0.3084
      6 C         141.0274  144.8244  160.2388 C.ar    1  UNL1        0.1611
      7 N         141.8260  145.0043  158.9819 N.ar    1  UNL1       -0.2249
      8 C         142.3162  143.8046  158.2267 C.ar    1  UNL1        0.1195
      9 C         142.0079  142.4250  158.7284 C.ar    1  UNL1        0.1034
     10 N         141.2093  142.2451  159.9853 N.ar    1  UNL1       -0.2258
     11 C         140.7190  143.4448  160.7405 C.ar    1  UNL1        0.1691
     12 H         140.7394  146.9296  160.6648 H       1  UNL1        0.1487
     13 C         138.9954  139.1262  163.5026 C.3     1  UNL1        0.1154
     14 C         140.3087  139.7696  163.8364 C.3     1  UNL1        0.0313
     15 C         140.6170  141.1492  163.3347 C.3     1  UNL1        0.0227
     16 C         139.6121  141.8854  162.4991 C.3     1  UNL1        0.0814
     17 C         138.2988  141.2420  162.1653 C.3     1  UNL1        0.0227
     18 C         137.9905  139.8624  162.6670 C.3     1  UNL1        0.0313
     19 C         138.5925  137.4886  165.4789 C.3     1  UNL1        0.1740
     20 O         138.6870  137.7467  164.0043 O.3     1  UNL1       -0.3536
     21 C         142.4982  141.2253  157.9731 C.ar    1  UNL1        0.0384
     22 C         142.5401  141.2485  156.4739 C.ar    1  UNL1        0.0044
     23 C         143.0304  140.0488  155.7186 C.ar    1  UNL1        0.0171
     24 C         143.4787  138.8259  156.4626 C.ar    1  UNL1        0.0830
     25 N         143.4368  138.8028  157.9619 N.ar    1  UNL1       -0.2458
     26 C         142.9465  140.0024  158.7171 C.ar    1  UNL1        0.1000
     27 C         143.9690  137.6262  155.7074 C.3     1  UNL1        0.1232
     28 C         143.0353  136.7517  156.4906 C.3     1  UNL1        0.0355
     29 C         144.9027  138.5008  154.9243 C.3     1  UNL1        0.0355
     30 O         144.4593  136.4266  154.9522 O.3     1  UNL1       -0.3812
     31 H         143.9957  135.6348  155.2669 H       1  UNL1        0.2107
@<TRIPOS>BOND
     1    19    20    1
     2    13    20    1
     3    13    14    1
     4    14    15    1
     5    15    16    1
     6    16     1    1
     7     1     2   am
     8     2     3    2
     9     2     4    1
    10     4     5    1
    11     5     6    1
    12     6     7   ar
    13     7     8   ar
    14     8     9   ar
    15     9    21    1
    16    21    22   ar
    17    22    23   ar
    18    23    24   ar
    19    24    27    1
    20    27    28    1
    21    27    29    1
    22    27    30    1
    23    24    25   ar
    24    25    26   ar
    25     9    10   ar
    26    10    11   ar
    27    16    17    1
    28    17    18    1
    29    18    13    1
    30    11     1    1
    31    11     6   ar
    32    26    21   ar
    33     5    12    1
    34    30    31    1
@<TRIPOS>MOLECULE
*****
 31 34 0 0 0
SMALL
GASTEIGER

@<TRIPOS>ATOM
      1 N         141.0191  143.0710  159.3783 N.am    1  UNL1       -0.2419
      2 C         140.6441  143.9561  158.2268 C.2     1  UNL1        0.2504
      3 O         140.7762  143.4528  156.8199 O.2     1  UNL1       -0.2726
      4 C         140.1369  145.3445  158.4822 C.3     1  UNL1        0.1754
      5 N         140.0048  145.8478  159.8890 N.pl3   1  UNL1       -0.3084
      6 C         140.3798  144.9627  161.0406 C.ar    1  UNL1        0.1611
      7 N         140.2477  145.4660  162.4474 N.ar    1  UNL1       -0.2249
      8 C         140.6227  144.5809  163.5988 C.ar    1  UNL1        0.1195
      9 C         141.1299  143.1925  163.3435 C.ar    1  UNL1        0.1034
     10 N         141.2620  142.6892  161.9367 N.ar    1  UNL1       -0.2258
     11 C         140.8870  143.5743  160.7852 C.ar    1  UNL1        0.1691
     12 H         139.6719  146.7590  160.0566 H       1  UNL1        0.1487
     13 C         142.5407  138.9059  158.6122 C.3     1  UNL1        0.1154
     14 C         141.0724  139.1443  158.8059 C.3     1  UNL1        0.0313
     15 C         140.5652  140.5326  159.0613 C.3     1  UNL1        0.0227
     16 C         141.5263  141.6827  159.1229 C.3     1  UNL1        0.0814
     17 C         142.9945  141.4443  158.9293 C.3     1  UNL1        0.0227
     18 C         143.5017  140.0560  158.6739 C.3     1  UNL1        0.0313
     19 C         142.8800  136.8951  157.0025 C.3     1  UNL1        0.1740
     20 O         143.0478  137.5176  158.3569 O.3     1  UNL1       -0.3536
     21 C         141.5050  142.3074  164.4951 C.ar    1  UNL1        0.0384
     22 C         142.6243  142.7033  165.4117 C.ar    1  UNL1        0.0044
     23 C         142.9993  141.8182  166.5633 C.ar    1  UNL1        0.0171
     24 C         142.2550  140.5373  166.7981 C.ar    1  UNL1        0.0830
     25 N         141.1356  140.1414  165.8814 N.ar    1  UNL1       -0.2458
     26 C         140.7606  141.0265  164.7299 C.ar    1  UNL1        0.1000
     27 C         142.6300  139.6522  167.9496 C.3     1  UNL1        0.1232
     28 C         143.2371  138.6674  166.9949 C.3     1  UNL1        0.0355
     29 C         142.0228  140.6370  168.9043 C.3     1  UNL1        0.0355
     30 O         143.0050  138.7671  169.1011 O.3     1  UNL1       -0.3812
     31 H         143.4560  137.9759  168.7673 H       1  UNL1        0.2107
@<TRIPOS>BOND
     1    19    20    1
     2    13    20    1
     3    13    14    1
     4    14    15    1
     5    15    16    1
     6    16     1    1
     7     1     2   am
     8     2     3    2
     9     2     4    1
    10     4     5    1
    11     5     6    1
    12     6     7   ar
    13     7     8   ar
    14     8     9   ar
    15     9    21    1
    16    21    22   ar
    17    22    23   ar
    18    23    24   ar
    19    24    27    1
    20    27    28    1
    21    27    29    1
    22    27    30    1
    23    24    25   ar
    24    25    26   ar
    25     9    10   ar
    26    10    11   ar
    27    16    17    1
    28    17    18    1
    29    18    13    1
    30    11     1    1
    31    11     6   ar
    32    26    21   ar
    33     5    12    1
    34    30    31    1
@<TRIPOS>MOLECULE
*****
 31 34 0 0 0
SMALL
GASTEIGER

@<TRIPOS>ATOM
      1 N         139.2499  143.8795  156.6568 N.am    1  UNL1       -0.2419
      2 C         139.5468  144.9549  155.6541 C.2     1  UNL1        0.2504
      3 O         139.0649  144.8159  154.2403 O.2     1  UNL1       -0.2726
      4 C         140.3255  146.1693  156.0650 C.3     1  UNL1        0.1754
      5 N         140.8073  146.3083  157.4786 N.pl3   1  UNL1       -0.3084
      6 C         140.5105  145.2329  158.4814 C.ar    1  UNL1        0.1611
      7 N         140.9924  145.3720  159.8951 N.ar    1  UNL1       -0.2249
      8 C         140.6955  144.2966  160.8978 C.ar    1  UNL1        0.1195
      9 C         139.9168  143.0822  160.4868 C.ar    1  UNL1        0.1034
     10 N         139.4350  142.9432  159.0732 N.ar    1  UNL1       -0.2258
     11 C         139.7318  144.0185  158.0705 C.ar    1  UNL1        0.1691
     12 H         141.3184  147.1054  157.7483 H       1  UNL1        0.1487
     13 C         136.9138  140.2363  155.4240 C.3     1  UNL1        0.1154
     14 C         138.4075  140.2513  155.2870 C.3     1  UNL1        0.0313
     15 C         139.1862  141.4657  155.6979 C.3     1  UNL1        0.0227
     16 C         138.4712  142.6651  156.2458 C.3     1  UNL1        0.0814
     17 C         136.9776  142.6502  156.3828 C.3     1  UNL1        0.0227
     18 C         136.1989  141.4358  155.9718 C.3     1  UNL1        0.0313
     19 C         136.7899  137.9556  154.1858 C.3     1  UNL1        0.1740
     20 O         136.1351  139.0220  155.0130 O.3     1  UNL1       -0.3536
     21 C         139.6200  142.0068  161.4896 C.ar    1  UNL1        0.0384
     22 C         139.3098  142.3718  162.9111 C.ar    1  UNL1        0.0044
     23 C         139.0129  141.2964  163.9139 C.ar    1  UNL1        0.0171
     24 C         139.0263  139.8561  163.4951 C.ar    1  UNL1        0.0830
     25 N         139.3366  139.4912  162.0736 N.ar    1  UNL1       -0.2458
     26 C         139.6334  140.5665  161.0709 C.ar    1  UNL1        0.1000
     27 C         138.7295  138.7808  164.4978 C.3     1  UNL1        0.1232
     28 C         139.2021  137.7423  163.5241 C.3     1  UNL1        0.0355
     29 C         138.2569  139.8192  165.4716 C.3     1  UNL1        0.0355
     30 O         138.4327  137.7054  165.5005 O.3     1  UNL1       -0.3812
     31 H         138.6569  136.8405  165.1230 H       1  UNL1        0.2107
@<TRIPOS>BOND
     1    19    20    1
     2    13    20    1
     3    13    14    1
     4    14    15    1
     5    15    16    1
     6    16     1    1
     7     1     2   am
     8     2     3    2
     9     2     4    1
    10     4     5    1
    11     5     6    1
    12     6     7   ar
    13     7     8   ar
    14     8     9   ar
    15     9    21    1
    16    21    22   ar
    17    22    23   ar
    18    23    24   ar
    19    24    27    1
    20    27    28    1
    21    27    29    1
    22    27    30    1
    23    24    25   ar
    24    25    26   ar
    25     9    10   ar
    26    10    11   ar
    27    16    17    1
    28    17    18    1
    29    18    13    1
    30    11     1    1
    31    11     6   ar
    32    26    21   ar
    33     5    12    1
    34    30    31    1
