@<TRIPOS>MOLECULE
*****
 34 37 0 0 0
SMALL
GASTEIGER

@<TRIPOS>ATOM
      1 N         137.4155  140.7741  161.7200 N.pl3   1  UNL1       -0.2825
      2 H         136.4375  140.7688  161.6071 H       1  UNL1        0.1551
      3 C         141.2029  144.4520  160.9765 C.ar    1  UNL1        0.1554
      4 N         141.7015  145.0502  159.6945 N.ar    1  UNL1       -0.1646
      5 N         140.9351  144.4292  158.5644 N.ar    1  UNL1       -0.2490
      6 C         141.1102  144.7362  157.1067 C.3     1  UNL1        0.1537
      7 C         139.9629  143.4473  159.1480 C.ar    1  UNL1        0.0756
      8 C         138.9483  142.5421  158.5146 C.ar    1  UNL1       -0.0033
      9 C         138.7828  142.5280  157.0238 C.3     1  UNL1        0.0326
     10 C         138.0992  141.6511  159.3719 C.ar    1  UNL1        0.0119
     11 C         138.2647  141.6652  160.8627 C.ar    1  UNL1        0.0503
     12 C         139.2793  142.5703  161.4961 C.ar    1  UNL1        0.0178
     13 C         140.1284  143.4614  160.6388 C.ar    1  UNL1        0.0420
     14 C         143.6555  145.1912  164.0078 C.3     1  UNL1        0.1110
     15 N         143.1656  144.8573  162.6299 N.am    1  UNL1       -0.2979
     16 C         141.6928  144.7859  162.3544 C.2     1  UNL1        0.2654
     17 O         140.7101  145.0483  163.4567 O.2     1  UNL1       -0.2684
     18 H         143.8107  144.6851  161.9064 H       1  UNL1        0.1498
     19 C         138.0564  139.8912  162.7494 C.ar    1  UNL1        0.2207
     20 N         138.3570  138.4578  162.4257 N.ar    1  UNL1       -0.2120
     21 C         138.9980  137.5749  163.4552 C.ar    1  UNL1        0.1034
     22 C         139.3383  138.1255  164.8083 C.ar    1  UNL1        0.0415
     23 C         139.0377  139.5589  165.1320 C.ar    1  UNL1        0.1050
     24 N         138.3968  140.4418  164.1026 N.ar    1  UNL1       -0.2120
     25 C         139.3780  140.1095  166.4851 C.ar    1  UNL1        0.1198
     26 C         140.2219  141.3192  166.7581 C.ar    1  UNL1        0.0381
     27 C         140.2997  141.5044  168.2445 C.ar    1  UNL1        0.0734
     28 N         139.5038  140.4091  168.8903 N.ar    1  UNL1       -0.2515
     29 C         139.3114  140.2108  170.3647 C.3     1  UNL1        0.1534
     30 N         138.9342  139.5471  167.8030 N.ar    1  UNL1       -0.1680
     31 C         141.0428  142.5936  168.9597 C.3     1  UNL1        0.1184
     32 N         142.3322  142.2859  169.6616 N.3     1  UNL1       -0.2652
     33 C         143.0591  141.0070  169.3685 C.3     1  UNL1        0.0900
     34 C         142.8948  143.2572  170.6568 C.3     1  UNL1        0.0900
@<TRIPOS>BOND
     1    14    15    1
     2    15    16   am
     3    16    17    2
     4    16     3    1
     5     3     4   ar
     6     4     5   ar
     7     5     6    1
     8     5     7   ar
     9     7     8   ar
    10     8     9    1
    11     8    10   ar
    12    10    11   ar
    13    11     1    1
    14     1    19    1
    15    19    20   ar
    16    20    21   ar
    17    21    22   ar
    18    22    23   ar
    19    23    25    1
    20    25    26   ar
    21    26    27   ar
    22    27    31    1
    23    31    32    1
    24    32    33    1
    25    32    34    1
    26    27    28   ar
    27    28    29    1
    28    28    30   ar
    29    23    24   ar
    30    11    12   ar
    31    12    13   ar
    32    13     3   ar
    33    13     7   ar
    34    24    19   ar
    35    30    25   ar
    36    15    18    1
    37     1     2    1
@<TRIPOS>MOLECULE
*****
 34 37 0 0 0
SMALL
GASTEIGER

@<TRIPOS>ATOM
      1 N         141.8049  139.5822  161.4393 N.pl3   1  UNL1       -0.2825
      2 H         142.5634  139.0242  161.1521 H       1  UNL1        0.1551
      3 C         139.7850  144.5161  161.4049 C.ar    1  UNL1        0.1554
      4 N         139.9470  145.5971  160.3777 N.ar    1  UNL1       -0.1646
      5 N         140.8185  145.0653  159.2787 N.ar    1  UNL1       -0.2490
      6 C         141.2395  145.8120  158.0478 C.3     1  UNL1        0.1537
      7 C         141.1951  143.6556  159.6267 C.ar    1  UNL1        0.0756
      8 C         142.0370  142.6373  158.9168 C.ar    1  UNL1       -0.0033
      9 C         142.6757  142.9767  157.6027 C.3     1  UNL1        0.0326
     10 C         142.2403  141.2795  159.5210 C.ar    1  UNL1        0.0119
     11 C         141.6016  140.9401  160.8351 C.ar    1  UNL1        0.0503
     12 C         140.7596  141.9584  161.5450 C.ar    1  UNL1        0.0178
     13 C         140.5564  143.3162  160.9408 C.ar    1  UNL1        0.0420
     14 C         138.8992  144.9215  165.2522 C.3     1  UNL1        0.1110
     15 N         139.6932  144.8204  163.9835 N.am    1  UNL1       -0.2979
     16 C         138.9911  144.6171  162.6736 C.2     1  UNL1        0.2654
     17 O         137.4952  144.5150  162.6324 O.2     1  UNL1       -0.2684
     18 H         140.6750  144.8875  164.0106 H       1  UNL1        0.1498
     19 C         140.8525  139.0746  162.4809 C.ar    1  UNL1        0.2207
     20 N         139.7532  138.1296  162.0954 N.ar    1  UNL1       -0.2120
     21 C         138.8007  137.6220  163.1371 C.ar    1  UNL1        0.1034
     22 C         138.9476  138.0593  164.5644 C.ar    1  UNL1        0.0415
     23 C         140.0469  139.0043  164.9500 C.ar    1  UNL1        0.1050
     24 N         140.9993  139.5119  163.9083 N.ar    1  UNL1       -0.2120
     25 C         140.1937  139.4416  166.3773 C.ar    1  UNL1        0.1198
     26 C         141.4819  139.7775  167.0684 C.ar    1  UNL1        0.0381
     27 C         141.1625  140.1633  168.4823 C.ar    1  UNL1        0.0734
     28 N         139.6768  140.0658  168.6650 N.ar    1  UNL1       -0.2515
     29 C         138.9224  140.3623  169.9271 C.3     1  UNL1        0.1534
     30 N         139.0781  139.6198  167.3640 N.ar    1  UNL1       -0.1680
     31 C         142.1545  140.5744  169.5296 C.3     1  UNL1        0.1184
     32 N         142.5070  142.0222  169.7017 N.3     1  UNL1       -0.2652
     33 C         141.4272  143.0634  169.6908 C.3     1  UNL1        0.0900
     34 C         143.9392  142.4289  169.8847 C.3     1  UNL1        0.0900
@<TRIPOS>BOND
     1    14    15    1
     2    15    16   am
     3    16    17    2
     4    16     3    1
     5     3     4   ar
     6     4     5   ar
     7     5     6    1
     8     5     7   ar
     9     7     8   ar
    10     8     9    1
    11     8    10   ar
    12    10    11   ar
    13    11     1    1
    14     1    19    1
    15    19    20   ar
    16    20    21   ar
    17    21    22   ar
    18    22    23   ar
    19    23    25    1
    20    25    26   ar
    21    26    27   ar
    22    27    31    1
    23    31    32    1
    24    32    33    1
    25    32    34    1
    26    27    28   ar
    27    28    29    1
    28    28    30   ar
    29    23    24   ar
    30    11    12   ar
    31    12    13   ar
    32    13     3   ar
    33    13     7   ar
    34    24    19   ar
    35    30    25   ar
    36    15    18    1
    37     1     2    1
@<TRIPOS>MOLECULE
*****
 34 37 0 0 0
SMALL
GASTEIGER

@<TRIPOS>ATOM
      1 N         138.7978  139.2524  165.1859 N.pl3   1  UNL1       -0.2825
      2 H         138.3512  138.3993  165.3913 H       1  UNL1        0.1551
      3 C         143.0078  142.1057  166.7855 C.ar    1  UNL1        0.1554
      4 N         143.3800  142.5472  168.1698 N.ar    1  UNL1       -0.1646
      5 N         142.3313  142.0412  169.1155 N.ar    1  UNL1       -0.2490
      6 C         142.3072  142.2524  170.6003 C.3     1  UNL1        0.1537
      7 C         141.3110  141.2869  168.3156 C.ar    1  UNL1        0.0756
      8 C         140.0552  140.5689  168.7124 C.ar    1  UNL1       -0.0033
      9 C         139.6371  140.5291  170.1524 C.3     1  UNL1        0.0326
     10 C         139.2175  139.8908  167.6692 C.ar    1  UNL1        0.0119
     11 C         139.6356  139.9306  166.2292 C.ar    1  UNL1        0.0503
     12 C         140.8913  140.6486  165.8323 C.ar    1  UNL1        0.0178
     13 C         141.7290  141.3267  166.8755 C.ar    1  UNL1        0.0420
     14 C         145.2016  141.5577  163.5240 C.3     1  UNL1        0.1110
     15 N         144.4305  141.2708  164.7783 N.am    1  UNL1       -0.2979
     16 C         143.7789  142.3926  165.5313 C.2     1  UNL1        0.2654
     17 O         143.8983  143.8012  165.0300 O.2     1  UNL1       -0.2684
     18 H         144.3521  140.3462  165.1072 H       1  UNL1        0.1498
     19 C         138.6404  139.8739  163.8299 C.ar    1  UNL1        0.2207
     20 N         137.8459  141.1362  163.6711 N.ar    1  UNL1       -0.2120
     21 C         137.6884  141.7577  162.3149 C.ar    1  UNL1        0.1034
     22 C         138.3255  141.1169  161.1177 C.ar    1  UNL1        0.0415
     23 C         139.1200  139.8545  161.2765 C.ar    1  UNL1        0.1050
     24 N         139.2774  139.2330  162.6326 N.ar    1  UNL1       -0.2120
     25 C         139.7571  139.2137  160.0793 C.ar    1  UNL1        0.1198
     26 C         141.2052  138.8478  159.9411 C.ar    1  UNL1        0.0381
     27 C         141.4011  138.2342  158.5864 C.ar    1  UNL1        0.0734
     28 N         140.0739  138.2208  157.8874 N.ar    1  UNL1       -0.2515
     29 C         139.8092  137.6944  156.5080 C.3     1  UNL1        0.1534
     30 N         139.0579  138.8261  158.8101 N.ar    1  UNL1       -0.1680
     31 C         142.6965  137.7236  158.0287 C.3     1  UNL1        0.1184
     32 N         143.3680  138.4533  156.9032 N.3     1  UNL1       -0.2652
     33 C         143.7319  137.7208  155.6458 C.3     1  UNL1        0.0900
     34 C         143.6755  139.9155  157.0351 C.3     1  UNL1        0.0900
@<TRIPOS>BOND
     1    14    15    1
     2    15    16   am
     3    16    17    2
     4    16     3    1
     5     3     4   ar
     6     4     5   ar
     7     5     6    1
     8     5     7   ar
     9     7     8   ar
    10     8     9    1
    11     8    10   ar
    12    10    11   ar
    13    11     1    1
    14     1    19    1
    15    19    20   ar
    16    20    21   ar
    17    21    22   ar
    18    22    23   ar
    19    23    25    1
    20    25    26   ar
    21    26    27   ar
    22    27    31    1
    23    31    32    1
    24    32    33    1
    25    32    34    1
    26    27    28   ar
    27    28    29    1
    28    28    30   ar
    29    23    24   ar
    30    11    12   ar
    31    12    13   ar
    32    13     3   ar
    33    13     7   ar
    34    24    19   ar
    35    30    25   ar
    36    15    18    1
    37     1     2    1
@<TRIPOS>MOLECULE
*****
 34 37 0 0 0
SMALL
GASTEIGER

@<TRIPOS>ATOM
      1 N         141.4065  145.5342  162.1167 N.pl3   1  UNL1       -0.2825
      2 H         141.3823  146.5123  162.2264 H       1  UNL1        0.1551
      3 C         138.4978  141.8047  159.6562 C.ar    1  UNL1        0.1554
      4 N         138.1842  141.6606  158.1964 N.ar    1  UNL1       -0.1646
      5 N         138.8476  142.7904  157.4661 N.ar    1  UNL1       -0.2490
      6 C         138.7964  143.0349  155.9870 C.3     1  UNL1        0.1537
      7 C         139.5713  143.6327  158.4744 C.ar    1  UNL1        0.0756
      8 C         140.3992  144.8757  158.3349 C.ar    1  UNL1       -0.0033
      9 C         140.6154  145.4849  156.9814 C.3     1  UNL1        0.0326
     10 C         141.0109  145.5095  159.5490 C.ar    1  UNL1        0.0119
     11 C         140.7947  144.9003  160.9026 C.ar    1  UNL1        0.0503
     12 C         139.9668  143.6573  161.0421 C.ar    1  UNL1        0.0178
     13 C         139.3551  143.0235  159.8280 C.ar    1  UNL1        0.0420
     14 C         137.8441  138.5035  161.7598 C.3     1  UNL1        0.1110
     15 N         138.3066  139.4177  160.6642 N.am    1  UNL1       -0.2979
     16 C         138.0354  140.8905  160.7518 C.2     1  UNL1        0.2654
     17 O         137.3018  141.4488  161.9349 O.2     1  UNL1       -0.2684
     18 H         138.7881  139.0512  159.8876 H       1  UNL1        0.1498
     19 C         142.0550  144.6779  163.1636 C.ar    1  UNL1        0.2207
     20 N         143.5334  144.7717  163.3991 N.ar    1  UNL1       -0.2120
     21 C         144.1820  143.9153  164.4461 C.ar    1  UNL1        0.1034
     22 C         143.3521  142.9652  165.2576 C.ar    1  UNL1        0.0415
     23 C         141.8736  142.8714  165.0221 C.ar    1  UNL1        0.1050
     24 N         141.2251  143.7277  163.9752 N.ar    1  UNL1       -0.2120
     25 C         141.0437  141.9213  165.8336 C.ar    1  UNL1        0.1198
     26 C         141.1038  141.7484  167.3224 C.ar    1  UNL1        0.0381
     27 C         140.1052  140.6975  167.7077 C.ar    1  UNL1        0.0734
     28 N         139.4280  140.2209  166.4569 N.ar    1  UNL1       -0.2515
     29 C         138.3585  139.1721  166.3783 C.3     1  UNL1        0.1534
     30 N         140.0081  140.9773  165.2987 N.ar    1  UNL1       -0.1680
     31 C         139.8319  140.2090  169.0993 C.3     1  UNL1        0.1184
     32 N         140.9307  140.1999  170.1204 N.3     1  UNL1       -0.2652
     33 C         142.0882  139.2582  169.9681 C.3     1  UNL1        0.0900
     34 C         140.8719  141.1326  171.2938 C.3     1  UNL1        0.0900
@<TRIPOS>BOND
     1    14    15    1
     2    15    16   am
     3    16    17    2
     4    16     3    1
     5     3     4   ar
     6     4     5   ar
     7     5     6    1
     8     5     7   ar
     9     7     8   ar
    10     8     9    1
    11     8    10   ar
    12    10    11   ar
    13    11     1    1
    14     1    19    1
    15    19    20   ar
    16    20    21   ar
    17    21    22   ar
    18    22    23   ar
    19    23    25    1
    20    25    26   ar
    21    26    27   ar
    22    27    31    1
    23    31    32    1
    24    32    33    1
    25    32    34    1
    26    27    28   ar
    27    28    29    1
    28    28    30   ar
    29    23    24   ar
    30    11    12   ar
    31    12    13   ar
    32    13     3   ar
    33    13     7   ar
    34    24    19   ar
    35    30    25   ar
    36    15    18    1
    37     1     2    1
@<TRIPOS>MOLECULE
*****
 34 37 0 0 0
SMALL
GASTEIGER

@<TRIPOS>ATOM
      1 N         140.4501  145.6927  161.2923 N.pl3   1  UNL1       -0.2825
      2 H         140.3702  146.6736  161.2685 H       1  UNL1        0.1551
      3 C         144.1601  142.1356  159.8756 C.ar    1  UNL1        0.1554
      4 N         144.6975  141.8224  158.5106 N.ar    1  UNL1       -0.1646
      5 N         143.9999  142.7100  157.5230 N.ar    1  UNL1       -0.2490
      6 C         144.2304  142.7321  156.0409 C.3     1  UNL1        0.1537
      7 C         143.0313  143.5717  158.2775 C.ar    1  UNL1        0.0756
      8 C         142.0719  144.6337  157.8284 C.ar    1  UNL1       -0.0033
      9 C         141.9729  144.9888  156.3744 C.3     1  UNL1        0.0326
     10 C         141.2116  145.3407  158.8333 C.ar    1  UNL1        0.0119
     11 C         141.3105  144.9856  160.2873 C.ar    1  UNL1        0.0503
     12 C         142.2699  143.9236  160.7364 C.ar    1  UNL1        0.0178
     13 C         143.1303  143.2166  159.7315 C.ar    1  UNL1        0.0420
     14 C         145.7619  141.6125  163.4688 C.3     1  UNL1        0.1110
     15 N         145.3431  142.2658  162.1851 N.am    1  UNL1       -0.2979
     16 C         144.5789  141.4823  161.1593 C.2     1  UNL1        0.2654
     17 O         144.2335  140.0456  161.4172 O.2     1  UNL1       -0.2684
     18 H         145.5698  143.2088  162.0158 H       1  UNL1        0.1498
     19 C         139.7115  144.9051  162.3335 C.ar    1  UNL1        0.2207
     20 N         138.2118  144.8781  162.3297 N.ar    1  UNL1       -0.2120
     21 C         137.4732  144.0905  163.3710 C.ar    1  UNL1        0.1034
     22 C         138.2343  143.3299  164.4160 C.ar    1  UNL1        0.0415
     23 C         139.7341  143.3569  164.4198 C.ar    1  UNL1        0.1050
     24 N         140.4727  144.1445  163.3786 N.ar    1  UNL1       -0.2120
     25 C         140.4952  142.5964  165.4649 C.ar    1  UNL1        0.1198
     26 C         140.6297  142.9771  166.9095 C.ar    1  UNL1        0.0381
     27 C         141.4731  141.9376  167.5863 C.ar    1  UNL1        0.0734
     28 N         141.8600  140.9144  166.5598 N.ar    1  UNL1       -0.2515
     29 C         142.7032  139.6977  166.8020 C.3     1  UNL1        0.1534
     30 N         141.2556  141.3216  165.2487 N.ar    1  UNL1       -0.1680
     31 C         141.8615  141.9236  169.0350 C.3     1  UNL1        0.1184
     32 N         141.4988  140.7512  169.8976 N.3     1  UNL1       -0.2652
     33 C         142.5547  140.0635  170.7112 C.3     1  UNL1        0.0900
     34 C         140.0800  140.2666  169.9464 C.3     1  UNL1        0.0900
@<TRIPOS>BOND
     1    14    15    1
     2    15    16   am
     3    16    17    2
     4    16     3    1
     5     3     4   ar
     6     4     5   ar
     7     5     6    1
     8     5     7   ar
     9     7     8   ar
    10     8     9    1
    11     8    10   ar
    12    10    11   ar
    13    11     1    1
    14     1    19    1
    15    19    20   ar
    16    20    21   ar
    17    21    22   ar
    18    22    23   ar
    19    23    25    1
    20    25    26   ar
    21    26    27   ar
    22    27    31    1
    23    31    32    1
    24    32    33    1
    25    32    34    1
    26    27    28   ar
    27    28    29    1
    28    28    30   ar
    29    23    24   ar
    30    11    12   ar
    31    12    13   ar
    32    13     3   ar
    33    13     7   ar
    34    24    19   ar
    35    30    25   ar
    36    15    18    1
    37     1     2    1
@<TRIPOS>MOLECULE
*****
 34 37 0 0 0
SMALL
GASTEIGER

@<TRIPOS>ATOM
      1 N         139.5270  137.6167  161.8216 N.pl3   1  UNL1       -0.2825
      2 H         139.2378  136.6800  161.7302 H       1  UNL1        0.1551
      3 C         142.6786  139.9552  165.4302 C.ar    1  UNL1        0.1554
      4 N         142.3715  140.3373  166.8478 N.ar    1  UNL1       -0.1646
      5 N         140.9531  139.9444  167.1369 N.ar    1  UNL1       -0.2490
      6 C         140.2309  140.1418  168.4367 C.3     1  UNL1        0.1537
      7 C         140.3835  139.3195  165.8979 C.ar    1  UNL1        0.0756
      8 C         139.0315  138.7452  165.5940 C.ar    1  UNL1       -0.0033
      9 C         137.9651  138.7385  166.6488 C.3     1  UNL1        0.0326
     10 C         138.7461  138.1776  164.2352 C.ar    1  UNL1        0.0119
     11 C         139.8125  138.1843  163.1804 C.ar    1  UNL1        0.0503
     12 C         141.1645  138.7586  163.4844 C.ar    1  UNL1        0.0178
     13 C         141.4499  139.3261  164.8431 C.ar    1  UNL1        0.0420
     14 C         145.5917  141.6962  163.3727 C.3     1  UNL1        0.1110
     15 N         144.2853  141.4862  164.0793 N.am    1  UNL1       -0.2979
     16 C         143.9850  140.1653  164.7237 C.2     1  UNL1        0.2654
     17 O         144.9911  139.0546  164.6614 O.2     1  UNL1       -0.2684
     18 H         143.6249  142.2152  164.1201 H       1  UNL1        0.1498
     19 C         139.6821  138.4761  160.6020 C.ar    1  UNL1        0.2207
     20 N         139.7356  137.8455  159.2420 N.ar    1  UNL1       -0.2120
     21 C         139.8908  138.7050  158.0225 C.ar    1  UNL1        0.1034
     22 C         139.9923  140.1949  158.1629 C.ar    1  UNL1        0.0415
     23 C         139.9387  140.8255  159.5229 C.ar    1  UNL1        0.1050
     24 N         139.7836  139.9661  160.7424 N.ar    1  UNL1       -0.2120
     25 C         140.0403  142.3154  159.6634 C.ar    1  UNL1        0.1198
     26 C         140.1478  143.0742  160.9528 C.ar    1  UNL1        0.0381
     27 C         140.2261  144.5359  160.6254 C.ar    1  UNL1        0.0734
     28 N         140.1670  144.6805  159.1335 N.ar    1  UNL1       -0.2515
     29 C         140.2144  145.9709  158.3703 C.3     1  UNL1        0.1534
     30 N         140.0521  143.3082  158.5390 N.ar    1  UNL1       -0.1680
     31 C         140.3430  145.6562  161.6159 C.3     1  UNL1        0.1184
     32 N         140.5419  145.3529  163.0714 N.3     1  UNL1       -0.2652
     33 C         139.3646  145.0014  163.9319 C.3     1  UNL1        0.0900
     34 C         141.9181  145.4011  163.6664 C.3     1  UNL1        0.0900
@<TRIPOS>BOND
     1    14    15    1
     2    15    16   am
     3    16    17    2
     4    16     3    1
     5     3     4   ar
     6     4     5   ar
     7     5     6    1
     8     5     7   ar
     9     7     8   ar
    10     8     9    1
    11     8    10   ar
    12    10    11   ar
    13    11     1    1
    14     1    19    1
    15    19    20   ar
    16    20    21   ar
    17    21    22   ar
    18    22    23   ar
    19    23    25    1
    20    25    26   ar
    21    26    27   ar
    22    27    31    1
    23    31    32    1
    24    32    33    1
    25    32    34    1
    26    27    28   ar
    27    28    29    1
    28    28    30   ar
    29    23    24   ar
    30    11    12   ar
    31    12    13   ar
    32    13     3   ar
    33    13     7   ar
    34    24    19   ar
    35    30    25   ar
    36    15    18    1
    37     1     2    1
@<TRIPOS>MOLECULE
*****
 34 37 0 0 0
SMALL
GASTEIGER

@<TRIPOS>ATOM
      1 N         137.9951  141.0278  161.2457 N.pl3   1  UNL1       -0.2825
      2 H         137.0602  140.7884  161.0507 H       1  UNL1        0.1551
      3 C         143.0743  139.4771  160.7763 C.ar    1  UNL1        0.1554
      4 N         143.7089  138.6250  159.7174 N.ar    1  UNL1       -0.1646
      5 N         142.6443  138.2382  158.7342 N.ar    1  UNL1       -0.2490
      6 C         142.8381  137.3876  157.5139 C.3     1  UNL1        0.1537
      7 C         141.3517  138.8511  159.1853 C.ar    1  UNL1        0.0756
      8 C         139.9671  138.8109  158.6100 C.ar    1  UNL1       -0.0033
      9 C         139.7013  138.0452  157.3478 C.3     1  UNL1        0.0326
     10 C         138.8482  139.5365  159.2968 C.ar    1  UNL1        0.0119
     11 C         139.1140  140.3022  160.5589 C.ar    1  UNL1        0.0503
     12 C         140.4987  140.3424  161.1343 C.ar    1  UNL1        0.0178
     13 C         141.6175  139.6169  160.4475 C.ar    1  UNL1        0.0420
     14 C         145.1525  139.8056  164.1414 C.3     1  UNL1        0.1110
     15 N         144.4530  139.1996  162.9609 N.am    1  UNL1       -0.2979
     16 C         143.7738  140.0831  161.9568 C.2     1  UNL1        0.2654
     17 O         143.7940  141.5725  162.1333 O.2     1  UNL1       -0.2684
     18 H         144.4397  138.2220  162.8451 H       1  UNL1        0.1498
     19 C         138.3005  142.1181  162.2295 C.ar    1  UNL1        0.2207
     20 N         138.1122  143.5543  161.8399 N.ar    1  UNL1       -0.2120
     21 C         138.4176  144.6446  162.8238 C.ar    1  UNL1        0.1034
     22 C         138.9113  144.2987  164.1973 C.ar    1  UNL1        0.0415
     23 C         139.0996  142.8624  164.5869 C.ar    1  UNL1        0.1050
     24 N         138.7942  141.7722  163.6031 N.ar    1  UNL1       -0.2120
     25 C         139.5933  142.5165  165.9604 C.ar    1  UNL1        0.1198
     26 C         139.8076  141.1325  166.4977 C.ar    1  UNL1        0.0381
     27 C         140.3061  141.2544  167.9072 C.ar    1  UNL1        0.0734
     28 N         140.4000  142.7138  168.2410 N.ar    1  UNL1       -0.2515
     29 C         140.8546  143.2918  169.5484 C.3     1  UNL1        0.1534
     30 N         139.9594  143.4938  167.0378 N.ar    1  UNL1       -0.1680
     31 C         140.6503  140.1168  168.8222 C.3     1  UNL1        0.1184
     32 N         142.0826  139.7129  169.0107 N.3     1  UNL1       -0.2652
     33 C         142.8440  139.0969  167.8746 C.3     1  UNL1        0.0900
     34 C         142.7535  139.9251  170.3355 C.3     1  UNL1        0.0900
@<TRIPOS>BOND
     1    14    15    1
     2    15    16   am
     3    16    17    2
     4    16     3    1
     5     3     4   ar
     6     4     5   ar
     7     5     6    1
     8     5     7   ar
     9     7     8   ar
    10     8     9    1
    11     8    10   ar
    12    10    11   ar
    13    11     1    1
    14     1    19    1
    15    19    20   ar
    16    20    21   ar
    17    21    22   ar
    18    22    23   ar
    19    23    25    1
    20    25    26   ar
    21    26    27   ar
    22    27    31    1
    23    31    32    1
    24    32    33    1
    25    32    34    1
    26    27    28   ar
    27    28    29    1
    28    28    30   ar
    29    23    24   ar
    30    11    12   ar
    31    12    13   ar
    32    13     3   ar
    33    13     7   ar
    34    24    19   ar
    35    30    25   ar
    36    15    18    1
    37     1     2    1
@<TRIPOS>MOLECULE
*****
 34 37 0 0 0
SMALL
GASTEIGER

@<TRIPOS>ATOM
      1 N         142.3283  144.9228  161.3551 N.pl3   1  UNL1       -0.2825
      2 H         142.4010  145.8691  161.6167 H       1  UNL1        0.1551
      3 C         138.5048  141.8008  159.3405 C.ar    1  UNL1        0.1554
      4 N         137.8159  141.8877  158.0110 N.ar    1  UNL1       -0.1646
      5 N         138.3889  143.0578  157.2676 N.ar    1  UNL1       -0.2490
      6 C         137.9890  143.5119  155.8951 C.3     1  UNL1        0.1537
      7 C         139.4319  143.6941  158.1378 C.ar    1  UNL1        0.0756
      8 C         140.3257  144.8805  157.9290 C.ar    1  UNL1       -0.0033
      9 C         140.2540  145.6573  156.6479 C.3     1  UNL1        0.0326
     10 C         141.2911  145.2900  159.0015 C.ar    1  UNL1        0.0119
     11 C         141.3628  144.5132  160.2826 C.ar    1  UNL1        0.0503
     12 C         140.4690  143.3268  160.4914 C.ar    1  UNL1        0.0178
     13 C         139.5036  142.9172  159.4189 C.ar    1  UNL1        0.0420
     14 C         138.5298  138.3660  161.3285 C.3     1  UNL1        0.1110
     15 N         138.7933  139.3896  160.2641 N.am    1  UNL1       -0.2979
     16 C         138.2413  140.7773  160.4049 C.2     1  UNL1        0.2654
     17 O         137.4259  141.1413  161.6101 O.2     1  UNL1       -0.2684
     18 H         139.3286  139.1506  159.4731 H       1  UNL1        0.1498
     19 C         143.1830  143.8906  162.0288 C.ar    1  UNL1        0.2207
     20 N         144.3573  143.3009  161.3055 N.ar    1  UNL1       -0.2120
     21 C         145.2121  142.2687  161.9793 C.ar    1  UNL1        0.1034
     22 C         144.8925  141.8262  163.3764 C.ar    1  UNL1        0.0415
     23 C         143.7182  142.4159  164.0998 C.ar    1  UNL1        0.1050
     24 N         142.8635  143.4481  163.4260 N.ar    1  UNL1       -0.2120
     25 C         143.3987  141.9734  165.4969 C.ar    1  UNL1        0.1198
     26 C         143.4385  142.8337  166.7251 C.ar    1  UNL1        0.0381
     27 C         143.0476  141.9849  167.8985 C.ar    1  UNL1        0.0734
     28 N         142.7661  140.6000  167.3954 N.ar    1  UNL1       -0.2515
     29 C         142.3421  139.4280  168.2301 C.3     1  UNL1        0.1534
     30 N         142.9831  140.5930  165.9112 N.ar    1  UNL1       -0.1680
     31 C         142.9545  142.4409  169.3244 C.3     1  UNL1        0.1184
     32 N         141.6161  142.5394  169.9945 N.3     1  UNL1       -0.2652
     33 C         141.3146  141.6929  171.1956 C.3     1  UNL1        0.0900
     34 C         140.5792  143.4844  169.4634 C.3     1  UNL1        0.0900
@<TRIPOS>BOND
     1    14    15    1
     2    15    16   am
     3    16    17    2
     4    16     3    1
     5     3     4   ar
     6     4     5   ar
     7     5     6    1
     8     5     7   ar
     9     7     8   ar
    10     8     9    1
    11     8    10   ar
    12    10    11   ar
    13    11     1    1
    14     1    19    1
    15    19    20   ar
    16    20    21   ar
    17    21    22   ar
    18    22    23   ar
    19    23    25    1
    20    25    26   ar
    21    26    27   ar
    22    27    31    1
    23    31    32    1
    24    32    33    1
    25    32    34    1
    26    27    28   ar
    27    28    29    1
    28    28    30   ar
    29    23    24   ar
    30    11    12   ar
    31    12    13   ar
    32    13     3   ar
    33    13     7   ar
    34    24    19   ar
    35    30    25   ar
    36    15    18    1
    37     1     2    1
@<TRIPOS>MOLECULE
*****
 34 37 0 0 0
SMALL
GASTEIGER

@<TRIPOS>ATOM
      1 N         138.1894  138.8394  162.5275 N.pl3   1  UNL1       -0.2825
      2 H         137.5573  138.1144  162.7373 H       1  UNL1        0.1551
      3 C         139.2588  143.6969  164.4470 C.ar    1  UNL1        0.1554
      4 N         139.7471  144.0887  165.8101 N.ar    1  UNL1       -0.1646
      5 N         139.9064  142.8378  166.6225 N.ar    1  UNL1       -0.2490
      6 C         140.3734  142.7646  168.0461 C.3     1  UNL1        0.1537
      7 C         139.5166  141.6730  165.7615 C.ar    1  UNL1        0.0756
      8 C         139.4744  140.1976  166.0281 C.ar    1  UNL1       -0.0033
      9 C         139.8746  139.6666  167.3727 C.3     1  UNL1        0.0326
     10 C         139.0320  139.2530  164.9501 C.ar    1  UNL1        0.0119
     11 C         138.6318  139.7840  163.6055 C.ar    1  UNL1        0.0503
     12 C         138.6740  141.2595  163.3389 C.ar    1  UNL1        0.0178
     13 C         139.1164  142.2040  164.4169 C.ar    1  UNL1        0.0420
     14 C         139.7174  146.5399  161.7161 C.3     1  UNL1        0.1110
     15 N         140.0116  145.6031  162.8501 N.am    1  UNL1       -0.2979
     16 C         138.9647  144.6336  163.3129 C.2     1  UNL1        0.2654
     17 O         137.6237  144.6010  162.6417 O.2     1  UNL1       -0.2684
     18 H         140.8918  145.6246  163.2906 H       1  UNL1        0.1498
     19 C         138.7101  138.9994  161.1299 C.ar    1  UNL1        0.2207
     20 N         140.0047  138.3539  160.7334 N.ar    1  UNL1       -0.2120
     21 C         140.5254  138.5140  159.3358 C.ar    1  UNL1        0.1034
     22 C         139.7515  139.3195  158.3348 C.ar    1  UNL1        0.0415
     23 C         138.4569  139.9651  158.7313 C.ar    1  UNL1        0.1050
     24 N         137.9362  139.8050  160.1288 N.ar    1  UNL1       -0.2120
     25 C         137.6830  140.7706  157.7303 C.ar    1  UNL1        0.1198
     26 C         138.0585  142.1265  157.2099 C.ar    1  UNL1        0.0381
     27 C         137.0053  142.5556  156.2319 C.ar    1  UNL1        0.0734
     28 N         135.9788  141.4650  156.1478 N.ar    1  UNL1       -0.2515
     29 C         134.7494  141.4757  155.2885 C.3     1  UNL1        0.1534
     30 N         136.3977  140.3618  157.0739 N.ar    1  UNL1       -0.1680
     31 C         136.9825  143.8484  155.4714 C.3     1  UNL1        0.1184
     32 N         137.5409  143.9104  154.0807 N.3     1  UNL1       -0.2652
     33 C         138.9842  144.2587  153.8668 C.3     1  UNL1        0.0900
     34 C         136.6561  143.6240  152.9037 C.3     1  UNL1        0.0900
@<TRIPOS>BOND
     1    14    15    1
     2    15    16   am
     3    16    17    2
     4    16     3    1
     5     3     4   ar
     6     4     5   ar
     7     5     6    1
     8     5     7   ar
     9     7     8   ar
    10     8     9    1
    11     8    10   ar
    12    10    11   ar
    13    11     1    1
    14     1    19    1
    15    19    20   ar
    16    20    21   ar
    17    21    22   ar
    18    22    23   ar
    19    23    25    1
    20    25    26   ar
    21    26    27   ar
    22    27    31    1
    23    31    32    1
    24    32    33    1
    25    32    34    1
    26    27    28   ar
    27    28    29    1
    28    28    30   ar
    29    23    24   ar
    30    11    12   ar
    31    12    13   ar
    32    13     3   ar
    33    13     7   ar
    34    24    19   ar
    35    30    25   ar
    36    15    18    1
    37     1     2    1
