@<TRIPOS>MOLECULE
*****
 35 40 0 0 0
SMALL
GASTEIGER

@<TRIPOS>ATOM
      1 C         139.6000  146.3682  157.5548 C.3     1  UNL1        0.0900
      2 N         140.0936  144.9530  157.6140 N.3     1  UNL1       -0.2649
      3 C         139.7468  144.4822  156.2326 C.3     1  UNL1        0.0788
      4 C         139.6282  143.5548  155.0596 C.3     1  UNL1        0.0628
      5 C         139.7538  142.2962  154.2532 C.ar    1  UNL1        0.0593
      6 C         139.1091  142.9072  153.0445 C.ar    1  UNL1        0.1134
      7 N         139.0636  141.8649  151.9668 N.ar    1  UNL1       -0.2227
      8 C         139.6802  140.6098  152.5094 C.ar    1  UNL1        0.1786
      9 N         140.1068  140.8763  153.9226 N.ar    1  UNL1       -0.3082
     10 C         140.6393  139.4869  154.1121 C.3     1  UNL1        0.1341
     11 C         141.2796  138.3157  154.7964 C.ar    1  UNL1        0.0035
     12 C         141.6142  136.8679  154.3900 C.ar    1  UNL1       -0.0015
     13 C         142.2596  135.7225  155.1121 C.ar    1  UNL1        0.0131
     14 C         142.7198  135.8933  156.5296 C.ar    1  UNL1        0.1028
     15 C         142.5344  137.2094  157.2249 C.ar    1  UNL1        0.1545
     16 C         141.9411  137.5207  155.8829 C.ar    1  UNL1        0.0358
     17 O         142.9795  137.4239  158.6412 O.3     1  UNL1       -0.4528
     18 C         143.2163  138.1350  159.9404 C.ar    1  UNL1        0.1454
     19 C         143.9023  137.7204  161.4418 C.ar    1  UNL1        0.0375
     20 C         144.0820  138.5407  162.6846 C.ar    1  UNL1        0.0032
     21 C         143.6178  139.9667  162.7157 C.ar    1  UNL1        0.0014
     22 C         143.8159  140.7530  163.9777 C.ar    1  UNL1        0.0001
     23 C         143.3654  142.1820  164.0495 C.ar    1  UNL1        0.0013
     24 C         142.7169  142.8246  162.8593 C.ar    1  UNL1        0.0149
     25 C         142.5188  142.0384  161.5974 C.ar    1  UNL1        0.0539
     26 C         142.9693  140.6094  161.5256 C.ar    1  UNL1        0.0167
     27 C         143.2127  139.2470  160.9472 C.ar    1  UNL1        0.0387
     28 N         141.9223  143.3409  161.1529 N.am    1  UNL1       -0.2575
     29 C         141.6562  144.7186  161.6831 C.3     1  UNL1        0.1001
     30 C         140.9947  145.5135  160.5966 C.3     1  UNL1        0.0472
     31 C         140.6219  144.9037  159.0169 C.3     1  UNL1        0.1371
     32 C         141.2601  144.3410  160.2522 C.2     1  UNL1        0.2439
     33 O         141.3118  144.8526  160.8614 O.2     1  UNL1       -0.2731
     34 C         143.3652  134.7479  157.2517 C.1     1  UNL1        0.1035
     35 N         144.0107  133.6025  157.9739 N.1     1  UNL1       -0.1907
@<TRIPOS>BOND
     1     1     2    1
     2     2     3    1
     3     3     4    1
     4     4     5    1
     5     5     6   ar
     6     6     7   ar
     7     7     8   ar
     8     8     9   ar
     9     9    10    1
    10    10    11    1
    11    11    12   ar
    12    12    13   ar
    13    13    14   ar
    14    14    34    1
    15    34    35    3
    16    14    15   ar
    17    15    16   ar
    18    15    17    1
    19    17    18    1
    20    18    19   ar
    21    19    20   ar
    22    20    21   ar
    23    21    22   ar
    24    22    23   ar
    25    23    24   ar
    26    24    25   ar
    27    25    26   ar
    28    26    27   ar
    29    25    28    1
    30    28    29    1
    31    29    30    1
    32    31    30    1
    33    31    32    1
    34    32    33    2
    35    31     2    1
    36     9     5   ar
    37    16    11   ar
    38    27    18   ar
    39    32    28   am
    40    26    21   ar
@<TRIPOS>MOLECULE
*****
 35 40 0 0 0
SMALL
GASTEIGER

@<TRIPOS>ATOM
      1 C         139.3262  147.0206  161.3139 C.3     1  UNL1        0.0900
      2 N         139.7712  145.6242  160.9945 N.3     1  UNL1       -0.2649
      3 C         140.1820  145.7870  159.5610 C.3     1  UNL1        0.0788
      4 C         140.7009  145.4145  158.2038 C.3     1  UNL1        0.0628
      5 C         141.2577  144.5573  157.1060 C.ar    1  UNL1        0.0593
      6 C         141.2876  145.6900  156.1231 C.ar    1  UNL1        0.1134
      7 N         141.8256  145.1636  154.8256 N.ar    1  UNL1       -0.2227
      8 C         142.1283  143.7056  155.0067 C.ar    1  UNL1        0.1786
      9 N         141.7774  143.3309  156.4161 N.ar    1  UNL1       -0.3082
     10 C         142.1896  141.9011  156.2270 C.3     1  UNL1        0.1341
     11 C         142.4387  140.4610  156.5645 C.ar    1  UNL1        0.0035
     12 C         142.9815  139.2415  155.7955 C.ar    1  UNL1       -0.0015
     13 C         143.2152  137.8095  156.1757 C.ar    1  UNL1        0.0131
     14 C         142.8943  137.3400  157.5637 C.ar    1  UNL1        0.1028
     15 C         142.3397  138.3027  158.5715 C.ar    1  UNL1        0.1545
     16 C         142.4911  139.2050  157.3829 C.ar    1  UNL1        0.0358
     17 O         142.0049  137.8761  159.9701 O.3     1  UNL1       -0.4528
     18 C         141.5321  137.9828  161.3896 C.ar    1  UNL1        0.1454
     19 C         141.3841  136.9091  162.7018 C.ar    1  UNL1        0.0375
     20 C         140.8866  137.1467  164.0968 C.ar    1  UNL1        0.0032
     21 C         140.4212  138.5131  164.5046 C.ar    1  UNL1        0.0014
     22 C         139.9311  138.7091  165.9087 C.ar    1  UNL1        0.0001
     23 C         139.4571  140.0602  166.3558 C.ar    1  UNL1        0.0013
     24 C         139.4732  141.2152  165.3988 C.ar    1  UNL1        0.0149
     25 C         139.9633  141.0192  163.9948 C.ar    1  UNL1        0.0539
     26 C         140.4373  139.6681  163.5477 C.ar    1  UNL1        0.0167
     27 C         140.9849  138.6083  162.6383 C.ar    1  UNL1        0.0387
     28 N         139.6269  142.4790  163.9193 N.am    1  UNL1       -0.2575
     29 C         139.0835  143.5752  164.7870 C.3     1  UNL1        0.1001
     30 C         139.0311  144.8312  163.9687 C.3     1  UNL1        0.0472
     31 C         139.5239  144.9483  162.3105 C.3     1  UNL1        0.1371
     32 C         139.4735  143.8505  163.3314 C.2     1  UNL1        0.2439
     33 O         139.1944  144.0728  164.0442 O.2     1  UNL1       -0.2731
     34 C         143.1280  135.9080  157.9439 C.1     1  UNL1        0.1035
     35 N         143.3617  134.4759  158.3242 N.1     1  UNL1       -0.1907
@<TRIPOS>BOND
     1     1     2    1
     2     2     3    1
     3     3     4    1
     4     4     5    1
     5     5     6   ar
     6     6     7   ar
     7     7     8   ar
     8     8     9   ar
     9     9    10    1
    10    10    11    1
    11    11    12   ar
    12    12    13   ar
    13    13    14   ar
    14    14    34    1
    15    34    35    3
    16    14    15   ar
    17    15    16   ar
    18    15    17    1
    19    17    18    1
    20    18    19   ar
    21    19    20   ar
    22    20    21   ar
    23    21    22   ar
    24    22    23   ar
    25    23    24   ar
    26    24    25   ar
    27    25    26   ar
    28    26    27   ar
    29    25    28    1
    30    28    29    1
    31    29    30    1
    32    31    30    1
    33    31    32    1
    34    32    33    2
    35    31     2    1
    36     9     5   ar
    37    16    11   ar
    38    27    18   ar
    39    32    28   am
    40    26    21   ar
@<TRIPOS>MOLECULE
*****
 35 40 0 0 0
SMALL
GASTEIGER

@<TRIPOS>ATOM
      1 C         143.3354  136.2561  159.3894 C.3     1  UNL1        0.0900
      2 N         142.8149  137.6397  159.1347 N.3     1  UNL1       -0.2649
      3 C         142.6912  137.6167  157.6399 C.3     1  UNL1        0.0788
      4 C         142.3928  138.1053  156.2535 C.3     1  UNL1        0.0628
      5 C         141.9603  139.0395  155.1625 C.ar    1  UNL1        0.0593
      6 C         142.2266  138.0341  154.0817 C.ar    1  UNL1        0.1134
      7 N         141.8828  138.6663  152.7656 N.ar    1  UNL1       -0.2227
      8 C         141.4040  140.0625  153.0331 C.ar    1  UNL1        0.1786
      9 N         141.4518  140.2931  154.5144 N.ar    1  UNL1       -0.3082
     10 C         140.9363  141.6968  154.3967 C.3     1  UNL1        0.1341
     11 C         140.4832  143.0610  154.8253 C.ar    1  UNL1        0.0035
     12 C         139.9672  144.3153  154.0948 C.ar    1  UNL1       -0.0015
     13 C         139.5222  145.6676  154.5672 C.ar    1  UNL1        0.0131
     14 C         139.5348  145.9921  156.0317 C.ar    1  UNL1        0.1028
     15 C         139.9924  144.9642  157.0237 C.ar    1  UNL1        0.1545
     16 C         140.1537  144.2014  155.7422 C.ar    1  UNL1        0.0358
     17 O         140.0210  145.2461  158.4967 O.3     1  UNL1       -0.4528
     18 C         140.2358  145.0093  159.9621 C.ar    1  UNL1        0.1454
     19 C         140.0310  145.9265  161.3810 C.ar    1  UNL1        0.0375
     20 C         140.2877  145.5650  162.8140 C.ar    1  UNL1        0.0032
     21 C         140.8089  144.2022  163.1620 C.ar    1  UNL1        0.0014
     22 C         141.0524  143.8802  164.6066 C.ar    1  UNL1        0.0001
     23 C         141.5733  142.5285  164.9962 C.ar    1  UNL1        0.0013
     24 C         141.8506  141.4990  163.9411 C.ar    1  UNL1        0.0149
     25 C         141.6071  141.8210  162.4965 C.ar    1  UNL1        0.0539
     26 C         141.0862  143.1727  162.1069 C.ar    1  UNL1        0.0167
     27 C         140.6075  144.2855  161.2223 C.ar    1  UNL1        0.0387
     28 N         142.0998  140.4132  162.3384 N.am    1  UNL1       -0.2575
     29 C         142.5857  139.2690  163.1778 C.3     1  UNL1        0.1001
     30 C         142.9152  138.1285  162.2609 C.3     1  UNL1        0.0472
     31 C         142.7475  138.1711  160.5357 C.3     1  UNL1        0.1371
     32 C         142.4979  139.1391  161.6540 C.2     1  UNL1        0.2439
     33 O         142.6637  138.8565  162.3807 O.2     1  UNL1       -0.2731
     34 C         139.0899  147.3444  156.5041 C.1     1  UNL1        0.1035
     35 N         138.6449  148.6968  156.9765 N.1     1  UNL1       -0.1907
@<TRIPOS>BOND
     1     1     2    1
     2     2     3    1
     3     3     4    1
     4     4     5    1
     5     5     6   ar
     6     6     7   ar
     7     7     8   ar
     8     8     9   ar
     9     9    10    1
    10    10    11    1
    11    11    12   ar
    12    12    13   ar
    13    13    14   ar
    14    14    34    1
    15    34    35    3
    16    14    15   ar
    17    15    16   ar
    18    15    17    1
    19    17    18    1
    20    18    19   ar
    21    19    20   ar
    22    20    21   ar
    23    21    22   ar
    24    22    23   ar
    25    23    24   ar
    26    24    25   ar
    27    25    26   ar
    28    26    27   ar
    29    25    28    1
    30    28    29    1
    31    29    30    1
    32    31    30    1
    33    31    32    1
    34    32    33    2
    35    31     2    1
    36     9     5   ar
    37    16    11   ar
    38    27    18   ar
    39    32    28   am
    40    26    21   ar
@<TRIPOS>MOLECULE
*****
 35 40 0 0 0
SMALL
GASTEIGER

@<TRIPOS>ATOM
      1 C         138.5002  138.1278  152.0497 C.3     1  UNL1        0.0900
      2 N         139.1341  138.7309  153.2681 N.3     1  UNL1       -0.2649
      3 C         139.8331  137.5318  153.8372 C.3     1  UNL1        0.0788
      4 C         140.6706  136.7165  154.7773 C.3     1  UNL1        0.0628
      5 C         141.5336  136.3947  155.9612 C.ar    1  UNL1        0.0593
      6 C         141.6721  134.9523  155.5736 C.ar    1  UNL1        0.1134
      7 N         142.5296  134.2763  156.6020 N.ar    1  UNL1       -0.2227
      8 C         142.9210  135.3008  157.6253 C.ar    1  UNL1        0.1786
      9 N         142.3054  136.6101  157.2292 N.ar    1  UNL1       -0.3082
     10 C         142.8820  137.3336  158.4100 C.3     1  UNL1        0.1341
     11 C         143.1853  138.4674  159.3441 C.ar    1  UNL1        0.0035
     12 C         143.9964  138.6179  160.6451 C.ar    1  UNL1       -0.0015
     13 C         144.2745  139.7796  161.5523 C.ar    1  UNL1        0.0131
     14 C         143.7018  141.1300  161.2387 C.ar    1  UNL1        0.1028
     15 C         142.8509  141.3187  160.0179 C.ar    1  UNL1        0.1545
     16 C         143.1744  139.8584  159.9053 C.ar    1  UNL1        0.0358
     17 O         142.2583  142.6512  159.6667 O.3     1  UNL1       -0.4528
     18 C         141.4768  143.6758  158.8990 C.ar    1  UNL1        0.1454
     19 C         141.1455  145.3350  159.0825 C.ar    1  UNL1        0.0375
     20 C         140.3332  146.2614  158.2269 C.ar    1  UNL1        0.0032
     21 C         139.6628  145.7443  156.9887 C.ar    1  UNL1        0.0014
     22 C         138.8596  146.7028  156.1604 C.ar    1  UNL1        0.0001
     23 C         138.1737  146.2253  154.9148 C.ar    1  UNL1        0.0013
     24 C         138.2911  144.7892  154.4975 C.ar    1  UNL1        0.0149
     25 C         139.0943  143.8308  155.3258 C.ar    1  UNL1        0.0539
     26 C         139.7802  144.3083  156.5714 C.ar    1  UNL1        0.0167
     27 C         140.6118  144.2542  157.8186 C.ar    1  UNL1        0.0387
     28 N         138.6468  142.8861  154.2501 N.am    1  UNL1       -0.2575
     29 C         137.8249  142.8861  152.9953 C.3     1  UNL1        0.1001
     30 C         137.8358  141.4951  152.4341 C.3     1  UNL1        0.0472
     31 C         138.6681  140.1514  153.1467 C.3     1  UNL1        0.1371
     32 C         138.4980  141.6018  153.4895 C.2     1  UNL1        0.2439
     33 O         138.0492  142.0138  152.9754 O.2     1  UNL1       -0.2731
     34 C         143.9799  142.2917  162.1460 C.1     1  UNL1        0.1035
     35 N         144.2581  143.4535  163.0532 N.1     1  UNL1       -0.1907
@<TRIPOS>BOND
     1     1     2    1
     2     2     3    1
     3     3     4    1
     4     4     5    1
     5     5     6   ar
     6     6     7   ar
     7     7     8   ar
     8     8     9   ar
     9     9    10    1
    10    10    11    1
    11    11    12   ar
    12    12    13   ar
    13    13    14   ar
    14    14    34    1
    15    34    35    3
    16    14    15   ar
    17    15    16   ar
    18    15    17    1
    19    17    18    1
    20    18    19   ar
    21    19    20   ar
    22    20    21   ar
    23    21    22   ar
    24    22    23   ar
    25    23    24   ar
    26    24    25   ar
    27    25    26   ar
    28    26    27   ar
    29    25    28    1
    30    28    29    1
    31    29    30    1
    32    31    30    1
    33    31    32    1
    34    32    33    2
    35    31     2    1
    36     9     5   ar
    37    16    11   ar
    38    27    18   ar
    39    32    28   am
    40    26    21   ar
@<TRIPOS>MOLECULE
*****
 35 40 0 0 0
SMALL
GASTEIGER

@<TRIPOS>ATOM
      1 C         139.2447  143.4970  160.2023 C.3     1  UNL1        0.0900
      2 N         139.5275  142.2590  159.4038 N.3     1  UNL1       -0.2649
      3 C         140.5865  141.6198  160.2524 C.3     1  UNL1        0.0788
      4 C         141.6064  140.6120  160.6928 C.3     1  UNL1        0.0628
      5 C         142.4496  139.3716  160.6658 C.ar    1  UNL1        0.0593
      6 C         143.1423  139.7140  161.9514 C.ar    1  UNL1        0.1134
      7 N         144.1229  138.6203  162.2550 N.ar    1  UNL1       -0.2227
      8 C         144.0362  137.6019  161.1571 C.ar    1  UNL1        0.1786
      9 N         143.0020  138.0663  160.1749 N.ar    1  UNL1       -0.3082
     10 C         143.1891  136.8723  159.2864 C.3     1  UNL1        0.1341
     11 C         142.9856  135.9509  158.1204 C.ar    1  UNL1        0.0035
     12 C         143.5966  134.6087  157.6749 C.ar    1  UNL1       -0.0015
     13 C         143.3611  133.7163  156.4925 C.ar    1  UNL1        0.0131
     14 C         142.3458  134.0968  155.4559 C.ar    1  UNL1        0.1028
     15 C         141.5661  135.3699  155.6018 C.ar    1  UNL1        0.1545
     16 C         142.4191  135.4265  156.8343 C.ar    1  UNL1        0.0358
     17 O         140.5416  135.7888  154.5894 O.3     1  UNL1       -0.4528
     18 C         139.4842  136.6266  153.9338 C.ar    1  UNL1        0.1454
     19 C         138.5450  136.5047  152.5197 C.ar    1  UNL1        0.0375
     20 C         137.5014  137.4296  151.9669 C.ar    1  UNL1        0.0032
     21 C         137.1540  138.6917  152.6993 C.ar    1  UNL1        0.0014
     22 C         136.1050  139.5896  152.1132 C.ar    1  UNL1        0.0001
     23 C         135.7288  140.8609  152.8148 C.ar    1  UNL1        0.0013
     24 C         136.4016  141.2342  154.1025 C.ar    1  UNL1        0.0149
     25 C         137.4505  140.3363  154.6886 C.ar    1  UNL1        0.0539
     26 C         137.8267  139.0650  153.9870 C.ar    1  UNL1        0.0167
     27 C         138.5365  137.7701  153.7235 C.ar    1  UNL1        0.0387
     28 N         137.4588  141.4124  155.7336 N.am    1  UNL1       -0.2575
     29 C         136.7786  142.7129  156.0435 C.3     1  UNL1        0.1001
     30 C         137.3451  143.2373  157.3295 C.3     1  UNL1        0.0472
     31 C         138.5725  142.4433  158.2620 C.3     1  UNL1        0.1371
     32 C         137.8504  142.1478  156.9809 C.2     1  UNL1        0.2439
     33 O         137.3139  142.6976  156.7680 O.2     1  UNL1       -0.2731
     34 C         142.1104  133.2044  154.2736 C.1     1  UNL1        0.1035
     35 N         141.8749  132.3119  153.0911 N.1     1  UNL1       -0.1907
@<TRIPOS>BOND
     1     1     2    1
     2     2     3    1
     3     3     4    1
     4     4     5    1
     5     5     6   ar
     6     6     7   ar
     7     7     8   ar
     8     8     9   ar
     9     9    10    1
    10    10    11    1
    11    11    12   ar
    12    12    13   ar
    13    13    14   ar
    14    14    34    1
    15    34    35    3
    16    14    15   ar
    17    15    16   ar
    18    15    17    1
    19    17    18    1
    20    18    19   ar
    21    19    20   ar
    22    20    21   ar
    23    21    22   ar
    24    22    23   ar
    25    23    24   ar
    26    24    25   ar
    27    25    26   ar
    28    26    27   ar
    29    25    28    1
    30    28    29    1
    31    29    30    1
    32    31    30    1
    33    31    32    1
    34    32    33    2
    35    31     2    1
    36     9     5   ar
    37    16    11   ar
    38    27    18   ar
    39    32    28   am
    40    26    21   ar
@<TRIPOS>MOLECULE
*****
 35 40 0 0 0
SMALL
GASTEIGER

@<TRIPOS>ATOM
      1 C         139.4965  147.0493  161.3634 C.3     1  UNL1        0.0900
      2 N         140.0480  145.8148  160.7139 N.3     1  UNL1       -0.2649
      3 C         139.9702  146.2061  159.2678 C.3     1  UNL1        0.0788
      4 C         140.1056  146.0908  157.7785 C.3     1  UNL1        0.0628
      5 C         140.4359  145.4846  156.4467 C.ar    1  UNL1        0.0593
      6 C         139.9772  146.6949  155.6885 C.ar    1  UNL1        0.1134
      7 N         140.1743  146.4275  154.2257 N.ar    1  UNL1       -0.2227
      8 C         140.7548  145.0521  154.0799 C.ar    1  UNL1        0.1786
      9 N         140.9165  144.4693  155.4526 N.ar    1  UNL1       -0.3082
     10 C         141.4824  143.1821  154.9303 C.3     1  UNL1        0.1341
     11 C         142.0572  141.7968  154.9505 C.ar    1  UNL1        0.0035
     12 C         142.5343  140.8011  153.8761 C.ar    1  UNL1       -0.0015
     13 C         143.1063  139.4161  153.9423 C.ar    1  UNL1        0.0131
     14 C         143.3054  138.7496  155.2713 C.ar    1  UNL1        0.1028
     15 C         142.9324  139.4682  156.5340 C.ar    1  UNL1        0.1545
     16 C         142.5633  140.5004  155.5102 C.ar    1  UNL1        0.0358
     17 O         143.1146  138.8394  157.8837 O.3     1  UNL1       -0.4528
     18 C         143.0852  138.6990  159.3767 C.ar    1  UNL1        0.1454
     19 C         143.5235  137.4879  160.4892 C.ar    1  UNL1        0.0375
     20 C         143.4420  137.4724  161.9869 C.ar    1  UNL1        0.0032
     21 C         142.9033  138.6644  162.7210 C.ar    1  UNL1        0.0014
     22 C         142.8383  138.6090  164.2186 C.ar    1  UNL1        0.0001
     23 C         142.3060  139.7803  164.9900 C.ar    1  UNL1        0.0013
     24 C         141.8387  141.0067  164.2637 C.ar    1  UNL1        0.0149
     25 C         141.9037  141.0620  162.7661 C.ar    1  UNL1        0.0539
     26 C         142.4360  139.8908  161.9948 C.ar    1  UNL1        0.0167
     27 C         142.8484  139.0660  160.8117 C.ar    1  UNL1        0.0387
     28 N         141.3234  142.4215  163.0216 N.am    1  UNL1       -0.2575
     29 C         140.8962  143.2868  164.1699 C.3     1  UNL1        0.1001
     30 C         140.3900  144.5831  163.6101 C.3     1  UNL1        0.0472
     31 C         140.3284  144.9700  161.9211 C.3     1  UNL1        0.1371
     32 C         140.7736  143.7855  162.7266 C.2     1  UNL1        0.2439
     33 O         140.6918  143.8708  163.5150 O.2     1  UNL1       -0.2731
     34 C         143.8774  137.3645  155.3375 C.1     1  UNL1        0.1035
     35 N         144.4494  135.9794  155.4036 N.1     1  UNL1       -0.1907
@<TRIPOS>BOND
     1     1     2    1
     2     2     3    1
     3     3     4    1
     4     4     5    1
     5     5     6   ar
     6     6     7   ar
     7     7     8   ar
     8     8     9   ar
     9     9    10    1
    10    10    11    1
    11    11    12   ar
    12    12    13   ar
    13    13    14   ar
    14    14    34    1
    15    34    35    3
    16    14    15   ar
    17    15    16   ar
    18    15    17    1
    19    17    18    1
    20    18    19   ar
    21    19    20   ar
    22    20    21   ar
    23    21    22   ar
    24    22    23   ar
    25    23    24   ar
    26    24    25   ar
    27    25    26   ar
    28    26    27   ar
    29    25    28    1
    30    28    29    1
    31    29    30    1
    32    31    30    1
    33    31    32    1
    34    32    33    2
    35    31     2    1
    36     9     5   ar
    37    16    11   ar
    38    27    18   ar
    39    32    28   am
    40    26    21   ar
@<TRIPOS>MOLECULE
*****
 35 40 0 0 0
SMALL
GASTEIGER

@<TRIPOS>ATOM
      1 C         142.1934  139.0512  163.7220 C.3     1  UNL1        0.0900
      2 N         142.0187  139.7580  162.4105 N.3     1  UNL1       -0.2649
      3 C         141.5645  141.1073  162.8831 C.3     1  UNL1        0.0788
      4 C         141.1075  142.5341  162.8099 C.3     1  UNL1        0.0628
      5 C         140.7093  143.8458  162.2008 C.ar    1  UNL1        0.0593
      6 C         140.4503  144.4815  163.5345 C.ar    1  UNL1        0.1134
      7 N         140.0046  145.8937  163.2960 N.ar    1  UNL1       -0.2227
      8 C         139.9882  146.1309  161.8149 C.ar    1  UNL1        0.1786
      9 N         140.4237  144.8651  161.1380 N.ar    1  UNL1       -0.3082
     10 C         140.2893  145.4545  159.7653 C.3     1  UNL1        0.1341
     11 C         140.3243  145.5343  158.2678 C.ar    1  UNL1        0.0035
     12 C         140.0136  146.6287  157.2291 C.ar    1  UNL1       -0.0015
     13 C         140.0627  146.6646  155.7304 C.ar    1  UNL1        0.0131
     14 C         140.4865  145.4465  154.9644 C.ar    1  UNL1        0.1028
     15 C         140.8611  144.1924  155.6973 C.ar    1  UNL1        0.1545
     16 C         140.5239  145.0938  156.8479 C.ar    1  UNL1        0.0358
     17 O         141.2904  142.9519  154.9715 O.3     1  UNL1       -0.4528
     18 C         141.7539  141.5399  154.7684 C.ar    1  UNL1        0.1454
     19 C         142.1222  140.5669  153.4215 C.ar    1  UNL1        0.0375
     20 C         142.5845  139.1416  153.3532 C.ar    1  UNL1        0.0032
     21 C         142.7862  138.3572  154.6157 C.ar    1  UNL1        0.0014
     22 C         143.2493  136.9348  154.5044 C.ar    1  UNL1        0.0001
     23 C         143.4629  136.1165  155.7432 C.ar    1  UNL1        0.0013
     24 C         143.2134  136.7206  157.0934 C.ar    1  UNL1        0.0149
     25 C         142.7504  138.1429  157.2047 C.ar    1  UNL1        0.0539
     26 C         142.5367  138.9613  155.9658 C.ar    1  UNL1        0.0167
     27 C         142.1889  140.1470  155.1155 C.ar    1  UNL1        0.0387
     28 N         142.8009  137.8025  158.6647 N.am    1  UNL1       -0.2575
     29 C         143.1372  136.6471  159.5601 C.3     1  UNL1        0.1001
     30 C         142.9376  137.0876  160.9799 C.3     1  UNL1        0.0472
     31 C         142.4086  138.6686  161.4561 C.3     1  UNL1        0.1371
     32 C         142.6816  137.9860  160.1486 C.2     1  UNL1        0.2439
     33 O         142.9230  137.2291  160.2136 O.2     1  UNL1       -0.2731
     34 C         140.5357  145.4824  153.4657 C.1     1  UNL1        0.1035
     35 N         140.5849  145.5183  151.9669 N.1     1  UNL1       -0.1907
@<TRIPOS>BOND
     1     1     2    1
     2     2     3    1
     3     3     4    1
     4     4     5    1
     5     5     6   ar
     6     6     7   ar
     7     7     8   ar
     8     8     9   ar
     9     9    10    1
    10    10    11    1
    11    11    12   ar
    12    12    13   ar
    13    13    14   ar
    14    14    34    1
    15    34    35    3
    16    14    15   ar
    17    15    16   ar
    18    15    17    1
    19    17    18    1
    20    18    19   ar
    21    19    20   ar
    22    20    21   ar
    23    21    22   ar
    24    22    23   ar
    25    23    24   ar
    26    24    25   ar
    27    25    26   ar
    28    26    27   ar
    29    25    28    1
    30    28    29    1
    31    29    30    1
    32    31    30    1
    33    31    32    1
    34    32    33    2
    35    31     2    1
    36     9     5   ar
    37    16    11   ar
    38    27    18   ar
    39    32    28   am
    40    26    21   ar
@<TRIPOS>MOLECULE
*****
 35 40 0 0 0
SMALL
GASTEIGER

@<TRIPOS>ATOM
      1 C         139.9351  144.7027  164.6336 C.3     1  UNL1        0.0900
      2 N         140.2597  143.8941  163.4125 N.3     1  UNL1       -0.2649
      3 C         140.6265  142.5821  164.0403 C.3     1  UNL1        0.0788
      4 C         141.0630  141.1501  164.1344 C.3     1  UNL1        0.0628
      5 C         141.5104  139.7916  163.6824 C.ar    1  UNL1        0.0593
      6 C         141.5889  139.2597  165.0828 C.ar    1  UNL1        0.1134
      7 N         142.0351  137.8294  165.0110 N.ar    1  UNL1       -0.2227
      8 C         142.2323  137.4773  163.5663 C.ar    1  UNL1        0.1786
      9 N         141.9080  138.6900  162.7452 N.ar    1  UNL1       -0.3082
     10 C         142.2024  137.9941  161.4494 C.3     1  UNL1        0.1341
     11 C         142.3536  137.7980  159.9699 C.ar    1  UNL1        0.0035
     12 C         142.7718  136.6233  159.0654 C.ar    1  UNL1       -0.0015
     13 C         142.9099  136.4709  157.5796 C.ar    1  UNL1        0.0131
     14 C         142.6075  137.6291  156.6755 C.ar    1  UNL1        0.1028
     15 C         142.1671  138.9396  157.2574 C.ar    1  UNL1        0.1545
     16 C         142.3413  138.1280  158.5068 C.ar    1  UNL1        0.0358
     17 O         141.8546  140.1233  156.3906 O.3     1  UNL1       -0.4528
     18 C         141.4460  141.5190  156.0234 C.ar    1  UNL1        0.1454
     19 C         141.2669  142.3869  154.5705 C.ar    1  UNL1        0.0375
     20 C         140.8428  143.8065  154.3357 C.ar    1  UNL1        0.0032
     21 C         140.4990  144.6887  155.4991 C.ar    1  UNL1        0.0014
     22 C         140.0795  146.1019  155.2219 C.ar    1  UNL1        0.0001
     23 C         139.7275  147.0162  156.3578 C.ar    1  UNL1        0.0013
     24 C         139.7950  146.5172  157.7708 C.ar    1  UNL1        0.0149
     25 C         140.2146  145.1041  158.0480 C.ar    1  UNL1        0.0539
     26 C         140.5666  144.1898  156.9121 C.ar    1  UNL1        0.0167
     27 C         140.9964  142.9384  156.2055 C.ar    1  UNL1        0.0387
     28 N         139.9879  145.5578  159.4596 N.am    1  UNL1       -0.2575
     29 C         139.5634  146.7825  160.2145 C.3     1  UNL1        0.1001
     30 C         139.5757  146.4525  161.6777 C.3     1  UNL1        0.0472
     31 C         140.0121  144.9090  162.3361 C.3     1  UNL1        0.1371
     32 C         139.9173  145.4897  160.9564 C.2     1  UNL1        0.2439
     33 O         139.6835  146.2514  160.9324 O.2     1  UNL1       -0.2731
     34 C         142.7456  137.4767  155.1897 C.1     1  UNL1        0.1035
     35 N         142.8837  137.3244  153.7038 N.1     1  UNL1       -0.1907
@<TRIPOS>BOND
     1     1     2    1
     2     2     3    1
     3     3     4    1
     4     4     5    1
     5     5     6   ar
     6     6     7   ar
     7     7     8   ar
     8     8     9   ar
     9     9    10    1
    10    10    11    1
    11    11    12   ar
    12    12    13   ar
    13    13    14   ar
    14    14    34    1
    15    34    35    3
    16    14    15   ar
    17    15    16   ar
    18    15    17    1
    19    17    18    1
    20    18    19   ar
    21    19    20   ar
    22    20    21   ar
    23    21    22   ar
    24    22    23   ar
    25    23    24   ar
    26    24    25   ar
    27    25    26   ar
    28    26    27   ar
    29    25    28    1
    30    28    29    1
    31    29    30    1
    32    31    30    1
    33    31    32    1
    34    32    33    2
    35    31     2    1
    36     9     5   ar
    37    16    11   ar
    38    27    18   ar
    39    32    28   am
    40    26    21   ar
@<TRIPOS>MOLECULE
*****
 35 40 0 0 0
SMALL
GASTEIGER

@<TRIPOS>ATOM
      1 C         146.6037  142.8853  158.1788 C.3     1  UNL1        0.0900
      2 N         145.1495  142.5350  158.0671 N.3     1  UNL1       -0.2649
      3 C         144.9136  142.7990  156.6094 C.3     1  UNL1        0.0788
      4 C         144.1751  142.8987  155.3076 C.3     1  UNL1        0.0628
      5 C         143.0339  142.8204  154.3373 C.ar    1  UNL1        0.0593
      6 C         143.8710  143.2931  153.1860 C.ar    1  UNL1        0.1134
      7 N         142.9984  143.3397  151.9668 N.ar    1  UNL1       -0.2227
      8 C         141.6220  142.8958  152.3647 C.ar    1  UNL1        0.1786
      9 N         141.6439  142.5749  153.8298 N.ar    1  UNL1       -0.3082
     10 C         140.1929  142.1952  153.8534 C.3     1  UNL1        0.1341
     11 C         138.8770  141.7326  154.4051 C.ar    1  UNL1        0.0035
     12 C         137.4719  141.5010  153.8174 C.ar    1  UNL1       -0.0015
     13 C         136.1757  141.0343  154.4105 C.ar    1  UNL1        0.0131
     14 C         136.0990  140.6896  155.8684 C.ar    1  UNL1        0.1028
     15 C         137.3187  140.8116  156.7330 C.ar    1  UNL1        0.1545
     16 C         137.8737  141.2497  155.4102 C.ar    1  UNL1        0.0358
     17 O         137.2868  140.4774  158.1950 O.3     1  UNL1       -0.4528
     18 C         137.7825  140.2925  159.5985 C.ar    1  UNL1        0.1454
     19 C         137.0938  139.7866  161.0704 C.ar    1  UNL1        0.0375
     20 C         137.7107  139.6428  162.4301 C.ar    1  UNL1        0.0032
     21 C         139.1600  139.9712  162.6346 C.ar    1  UNL1        0.0014
     22 C         139.7388  139.8140  164.0095 C.ar    1  UNL1        0.0001
     23 C         141.1839  140.1321  164.2557 C.ar    1  UNL1        0.0013
     24 C         142.0501  140.6072  163.1270 C.ar    1  UNL1        0.0149
     25 C         141.4713  140.7643  161.7522 C.ar    1  UNL1        0.0539
     26 C         140.0262  140.4463  161.5060 C.ar    1  UNL1        0.0167
     27 C         138.7386  140.2816  160.7542 C.ar    1  UNL1        0.0387
     28 N         142.8787  141.1927  161.4596 N.am    1  UNL1       -0.2575
     29 C         144.1903  141.3741  162.1642 C.3     1  UNL1        0.1001
     30 C         145.1936  141.8571  161.1591 C.3     1  UNL1        0.0472
     31 C         144.8510  142.1422  159.4835 C.3     1  UNL1        0.1371
     32 C         144.0584  141.6737  160.6677 C.2     1  UNL1        0.2439
     33 O         144.4724  141.6290  161.3474 O.2     1  UNL1       -0.2731
     34 C         134.8028  140.2228  156.4616 C.1     1  UNL1        0.1035
     35 N         133.5065  139.7561  157.0548 N.1     1  UNL1       -0.1907
@<TRIPOS>BOND
     1     1     2    1
     2     2     3    1
     3     3     4    1
     4     4     5    1
     5     5     6   ar
     6     6     7   ar
     7     7     8   ar
     8     8     9   ar
     9     9    10    1
    10    10    11    1
    11    11    12   ar
    12    12    13   ar
    13    13    14   ar
    14    14    34    1
    15    34    35    3
    16    14    15   ar
    17    15    16   ar
    18    15    17    1
    19    17    18    1
    20    18    19   ar
    21    19    20   ar
    22    20    21   ar
    23    21    22   ar
    24    22    23   ar
    25    23    24   ar
    26    24    25   ar
    27    25    26   ar
    28    26    27   ar
    29    25    28    1
    30    28    29    1
    31    29    30    1
    32    31    30    1
    33    31    32    1
    34    32    33    2
    35    31     2    1
    36     9     5   ar
    37    16    11   ar
    38    27    18   ar
    39    32    28   am
    40    26    21   ar
