@<TRIPOS>MOLECULE
*****
 27 30 0 0 0
SMALL
GASTEIGER

@<TRIPOS>ATOM
      1 C         138.7146  140.1072  164.8109 C.3     1  UNL1        0.0770
      2 C         139.9853  140.8612  165.0693 C.3     1  UNL1        0.0130
      3 C         140.5413  140.9394  166.4602 C.3     1  UNL1        0.0449
      4 C         139.8265  140.2637  167.5927 C.3     1  UNL1        0.1550
      5 C         138.5558  139.5097  167.3343 C.3     1  UNL1        0.0449
      6 C         137.9999  139.4315  165.9434 C.3     1  UNL1        0.0130
      7 O         139.2260  139.6419  168.8186 O.3     1  UNL1       -0.4485
      8 C         140.1091  139.9714  169.9856 C.2     1  UNL1        0.3411
      9 O         139.8851  139.5496  171.4075 O.2     1  UNL1       -0.2449
     10 C         141.2554  140.7969  169.4809 C.ar    1  UNL1        0.0749
     11 C         142.4356  141.4074  170.1768 C.ar    1  UNL1        0.0062
     12 C         143.4412  142.1984  169.3940 C.ar    1  UNL1        0.0002
     13 C         143.2666  142.3791  167.9152 C.ar    1  UNL1       -0.0002
     14 C         142.0864  141.7686  167.2192 C.ar    1  UNL1       -0.0007
     15 C         141.0808  140.9775  168.0021 C.ar    1  UNL1        0.0199
     16 C         137.8730  138.7441  161.1799 C.3     1  UNL1        0.1149
     17 N         138.4290  138.8224  162.5708 N.am    1  UNL1       -0.2764
     18 C         138.1585  140.0289  163.4199 C.2     1  UNL1        0.2252
     19 O         137.3319  141.1573  162.8781 O.2     1  UNL1       -0.2749
     20 C         139.2556  137.6940  163.1127 C.3     1  UNL1        0.1107
     21 C         140.6840  137.5367  162.6823 C.3     1  UNL1        0.0939
     22 N         141.7862  138.1283  163.5101 N.3     1  UNL1       -0.2712
     23 C         141.9198  137.7563  164.9571 C.3     1  UNL1        0.0721
     24 C         143.0220  138.3479  165.7849 C.3     1  UNL1        0.0174
     25 C         143.9905  139.3116  165.1656 C.3     1  UNL1        0.0029
     26 C         143.8568  139.6835  163.7186 C.3     1  UNL1        0.0174
     27 C         142.7546  139.0919  162.8909 C.3     1  UNL1        0.0721
@<TRIPOS>BOND
     1    16    17    1
     2    17    20    1
     3    20    21    1
     4    21    22    1
     5    22    23    1
     6    23    24    1
     7    24    25    1
     8    25    26    1
     9    26    27    1
    10    17    18   am
    11    18    19    2
    12     1    18    1
    13     1     2    1
    14     2     3    1
    15     4     3    1
    16     4     5    1
    17     5     6    1
    18     4     7    1
    19     7     8    1
    20     8     9    2
    21     8    10    1
    22    10    11   ar
    23    11    12   ar
    24    12    13   ar
    25    13    14   ar
    26    14    15   ar
    27    27    22    1
    28     6     1    1
    29    15    10   ar
    30    15     4    1
@<TRIPOS>MOLECULE
*****
 27 30 0 0 0
SMALL
GASTEIGER

@<TRIPOS>ATOM
      1 C         139.6682  138.6505  164.3972 C.3     1  UNL1        0.0770
      2 C         140.5677  139.7191  164.9440 C.3     1  UNL1        0.0130
      3 C         140.3869  140.2035  166.3520 C.3     1  UNL1        0.0449
      4 C         139.3066  139.6194  167.2133 C.3     1  UNL1        0.1550
      5 C         138.4071  138.5509  166.6665 C.3     1  UNL1        0.0449
      6 C         138.5879  138.0664  165.2585 C.3     1  UNL1        0.0130
      7 O         138.2756  139.1323  168.1878 O.3     1  UNL1       -0.4485
      8 C         138.4569  139.8879  169.4709 C.2     1  UNL1        0.3411
      9 O         137.6388  139.7190  170.7167 O.2     1  UNL1       -0.2449
     10 C         139.6000  140.8421  169.2893 C.ar    1  UNL1        0.0749
     11 C         140.2305  141.8406  170.2142 C.ar    1  UNL1        0.0062
     12 C         141.3861  142.6732  169.7439 C.ar    1  UNL1        0.0002
     13 C         141.9113  142.5073  168.3486 C.ar    1  UNL1       -0.0002
     14 C         141.2808  141.5088  167.4237 C.ar    1  UNL1       -0.0007
     15 C         140.1251  140.6762  167.8941 C.ar    1  UNL1        0.0199
     16 C         139.3346  138.3823  160.4517 C.3     1  UNL1        0.1149
     17 N         139.1538  138.8668  161.8598 N.am    1  UNL1       -0.2764
     18 C         139.8490  138.1660  162.9891 C.2     1  UNL1        0.2252
     19 O         140.7249  136.9806  162.7105 O.2     1  UNL1       -0.2749
     20 C         138.2779  140.0522  162.1384 C.3     1  UNL1        0.1107
     21 C         138.7704  141.4364  161.8357 C.3     1  UNL1        0.0939
     22 N         138.9219  142.4373  162.9426 N.3     1  UNL1       -0.2712
     23 C         137.7055  143.0077  163.6097 C.3     1  UNL1        0.0721
     24 C         137.8570  144.0086  164.7166 C.3     1  UNL1        0.0174
     25 C         139.2250  144.4390  165.1565 C.3     1  UNL1        0.0029
     26 C         140.4414  143.8686  164.4894 C.3     1  UNL1        0.0174
     27 C         140.2898  142.8677  163.3825 C.3     1  UNL1        0.0721
@<TRIPOS>BOND
     1    16    17    1
     2    17    20    1
     3    20    21    1
     4    21    22    1
     5    22    23    1
     6    23    24    1
     7    24    25    1
     8    25    26    1
     9    26    27    1
    10    17    18   am
    11    18    19    2
    12     1    18    1
    13     1     2    1
    14     2     3    1
    15     4     3    1
    16     4     5    1
    17     5     6    1
    18     4     7    1
    19     7     8    1
    20     8     9    2
    21     8    10    1
    22    10    11   ar
    23    11    12   ar
    24    12    13   ar
    25    13    14   ar
    26    14    15   ar
    27    27    22    1
    28     6     1    1
    29    15    10   ar
    30    15     4    1
@<TRIPOS>MOLECULE
*****
 27 30 0 0 0
SMALL
GASTEIGER

@<TRIPOS>ATOM
      1 C         139.2514  140.6119  164.3187 C.3     1  UNL1        0.0770
      2 C         138.8087  140.2223  165.6979 C.3     1  UNL1        0.0130
      3 C         139.6555  140.5747  166.8848 C.3     1  UNL1        0.0449
      4 C         140.9449  141.3167  166.6925 C.3     1  UNL1        0.1550
      5 C         141.3875  141.7063  165.3133 C.3     1  UNL1        0.0449
      6 C         140.5408  141.3539  164.1264 C.3     1  UNL1        0.0130
      7 O         142.2516  142.0524  166.6562 O.3     1  UNL1       -0.4485
      8 C         142.7479  142.1856  168.0655 C.2     1  UNL1        0.3411
      9 O         144.0207  142.8547  168.4924 O.2     1  UNL1       -0.2449
     10 C         141.7479  141.5323  168.9728 C.ar    1  UNL1        0.0749
     11 C         141.7080  141.3570  170.4620 C.ar    1  UNL1        0.0062
     12 C         140.5539  140.6448  171.1027 C.ar    1  UNL1        0.0002
     13 C         139.4395  140.1077  170.2542 C.ar    1  UNL1       -0.0002
     14 C         139.4794  140.2830  168.7650 C.ar    1  UNL1       -0.0007
     15 C         140.6336  140.9953  168.1243 C.ar    1  UNL1        0.0199
     16 C         137.5086  138.4911  161.4524 C.3     1  UNL1        0.1149
     17 N         138.3554  138.8435  162.6394 N.am    1  UNL1       -0.2764
     18 C         138.4046  140.2595  163.1317 C.2     1  UNL1        0.2252
     19 O         137.6071  141.3232  162.4371 O.2     1  UNL1       -0.2749
     20 C         139.1529  137.7798  163.3341 C.3     1  UNL1        0.1107
     21 C         140.5400  137.4554  162.8643 C.3     1  UNL1        0.0939
     22 N         141.7276  138.0196  163.5863 N.3     1  UNL1       -0.2712
     23 C         141.8486  137.8569  165.0726 C.3     1  UNL1        0.0721
     24 C         143.0361  138.4211  165.7947 C.3     1  UNL1        0.0174
     25 C         144.1026  139.1482  165.0304 C.3     1  UNL1        0.0029
     26 C         143.9816  139.3109  163.5442 C.3     1  UNL1        0.0174
     27 C         142.7941  138.7467  162.8222 C.3     1  UNL1        0.0721
@<TRIPOS>BOND
     1    16    17    1
     2    17    20    1
     3    20    21    1
     4    21    22    1
     5    22    23    1
     6    23    24    1
     7    24    25    1
     8    25    26    1
     9    26    27    1
    10    17    18   am
    11    18    19    2
    12     1    18    1
    13     1     2    1
    14     2     3    1
    15     4     3    1
    16     4     5    1
    17     5     6    1
    18     4     7    1
    19     7     8    1
    20     8     9    2
    21     8    10    1
    22    10    11   ar
    23    11    12   ar
    24    12    13   ar
    25    13    14   ar
    26    14    15   ar
    27    27    22    1
    28     6     1    1
    29    15    10   ar
    30    15     4    1
@<TRIPOS>MOLECULE
*****
 27 30 0 0 0
SMALL
GASTEIGER

@<TRIPOS>ATOM
      1 C         143.1963  139.8276  163.7145 C.3     1  UNL1        0.0770
      2 C         142.3600  140.9138  164.3234 C.3     1  UNL1        0.0130
      3 C         142.0925  140.9161  165.7993 C.3     1  UNL1        0.0449
      4 C         142.6613  139.8323  166.6664 C.3     1  UNL1        0.1550
      5 C         143.4976  138.7461  166.0575 C.3     1  UNL1        0.0449
      6 C         143.7651  138.7438  164.5816 C.3     1  UNL1        0.0130
      7 O         143.1603  138.8201  167.6545 O.3     1  UNL1       -0.4485
      8 C         142.6551  139.2095  169.0122 C.2     1  UNL1        0.3411
      9 O         142.9155  138.4750  170.2939 O.2     1  UNL1       -0.2449
     10 C         141.8439  140.4624  168.8631 C.ar    1  UNL1        0.0749
     11 C         141.1022  141.3025  169.8602 C.ar    1  UNL1        0.0062
     12 C         140.3643  142.5274  169.4075 C.ar    1  UNL1        0.0002
     13 C         140.3681  142.9124  167.9577 C.ar    1  UNL1       -0.0002
     14 C         141.1098  142.0723  166.9606 C.ar    1  UNL1       -0.0007
     15 C         141.8476  140.8473  167.4134 C.ar    1  UNL1        0.0199
     16 C         143.0302  138.8379  159.8748 C.3     1  UNL1        0.1149
     17 N         142.7627  138.8403  161.3508 N.am    1  UNL1       -0.2764
     18 C         143.4639  139.8252  162.2385 C.2     1  UNL1        0.2252
     19 O         144.4328  140.8077  161.6504 O.2     1  UNL1       -0.2749
     20 C         141.7938  137.8578  161.9389 C.3     1  UNL1        0.1107
     21 C         140.3273  138.1726  161.9619 C.3     1  UNL1        0.0939
     22 N         139.6986  138.7267  163.2060 N.3     1  UNL1       -0.2712
     23 C         139.8809  138.0205  164.5169 C.3     1  UNL1        0.0721
     24 C         139.2522  138.5745  165.7610 C.3     1  UNL1        0.0174
     25 C         138.4412  139.8347  165.6943 C.3     1  UNL1        0.0029
     26 C         138.2590  140.5408  164.3835 C.3     1  UNL1        0.0174
     27 C         138.8877  139.9868  163.1394 C.3     1  UNL1        0.0721
@<TRIPOS>BOND
     1    16    17    1
     2    17    20    1
     3    20    21    1
     4    21    22    1
     5    22    23    1
     6    23    24    1
     7    24    25    1
     8    25    26    1
     9    26    27    1
    10    17    18   am
    11    18    19    2
    12     1    18    1
    13     1     2    1
    14     2     3    1
    15     4     3    1
    16     4     5    1
    17     5     6    1
    18     4     7    1
    19     7     8    1
    20     8     9    2
    21     8    10    1
    22    10    11   ar
    23    11    12   ar
    24    12    13   ar
    25    13    14   ar
    26    14    15   ar
    27    27    22    1
    28     6     1    1
    29    15    10   ar
    30    15     4    1
@<TRIPOS>MOLECULE
*****
 27 30 0 0 0
SMALL
GASTEIGER

@<TRIPOS>ATOM
      1 C         139.4328  143.5021  162.9285 C.3     1  UNL1        0.0770
      2 C         140.2071  143.5872  164.2103 C.3     1  UNL1        0.0130
      3 C         140.0076  142.5519  165.2772 C.3     1  UNL1        0.0449
      4 C         139.0337  141.4314  165.0622 C.3     1  UNL1        0.1550
      5 C         138.2594  141.3463  163.7804 C.3     1  UNL1        0.0449
      6 C         138.4589  142.3817  162.7135 C.3     1  UNL1        0.0130
      7 O         138.0999  140.2598  164.9901 O.3     1  UNL1       -0.4485
      8 C         138.2220  139.4901  166.2719 C.2     1  UNL1        0.3411
      9 O         137.4674  138.2434  166.6271 O.2     1  UNL1       -0.2449
     10 C         139.2314  140.1862  167.1361 C.ar    1  UNL1        0.0749
     11 C         139.7585  139.8825  168.5073 C.ar    1  UNL1        0.0062
     12 C         140.7871  140.7786  169.1307 C.ar    1  UNL1        0.0002
     13 C         141.2888  141.9784  168.3831 C.ar    1  UNL1       -0.0002
     14 C         140.7617  142.2821  167.0120 C.ar    1  UNL1       -0.0007
     15 C         139.7330  141.3859  166.3885 C.ar    1  UNL1        0.0199
     16 C         140.8096  145.3267  159.6842 C.3     1  UNL1        0.1149
     17 N         140.6101  144.2913  160.7511 N.am    1  UNL1       -0.2764
     18 C         139.6323  144.5375  161.8616 C.2     1  UNL1        0.2252
     19 O         138.8539  145.8190  161.9052 O.2     1  UNL1       -0.2749
     20 C         141.3885  143.0099  160.7075 C.3     1  UNL1        0.1107
     21 C         142.8471  143.0060  161.0576 C.3     1  UNL1        0.0939
     22 N         143.2741  143.0900  162.4930 N.3     1  UNL1       -0.2712
     23 C         143.6263  144.4184  163.0943 C.3     1  UNL1        0.0721
     24 C         144.0533  144.5024  164.5298 C.3     1  UNL1        0.0174
     25 C         144.1281  143.2580  165.3640 C.3     1  UNL1        0.0029
     26 C         143.7759  141.9297  164.7628 C.3     1  UNL1        0.0174
     27 C         143.3489  141.8457  163.3273 C.3     1  UNL1        0.0721
@<TRIPOS>BOND
     1    16    17    1
     2    17    20    1
     3    20    21    1
     4    21    22    1
     5    22    23    1
     6    23    24    1
     7    24    25    1
     8    25    26    1
     9    26    27    1
    10    17    18   am
    11    18    19    2
    12     1    18    1
    13     1     2    1
    14     2     3    1
    15     4     3    1
    16     4     5    1
    17     5     6    1
    18     4     7    1
    19     7     8    1
    20     8     9    2
    21     8    10    1
    22    10    11   ar
    23    11    12   ar
    24    12    13   ar
    25    13    14   ar
    26    14    15   ar
    27    27    22    1
    28     6     1    1
    29    15    10   ar
    30    15     4    1
@<TRIPOS>MOLECULE
*****
 27 30 0 0 0
SMALL
GASTEIGER

@<TRIPOS>ATOM
      1 C         142.5809  142.6982  163.3941 C.3     1  UNL1        0.0770
      2 C         141.4878  141.9305  164.0765 C.3     1  UNL1        0.0130
      3 C         141.5310  141.7238  165.5616 C.3     1  UNL1        0.0449
      4 C         142.6673  142.2848  166.3641 C.3     1  UNL1        0.1550
      5 C         143.7604  143.0525  165.6817 C.3     1  UNL1        0.0449
      6 C         143.7172  143.2592  164.1966 C.3     1  UNL1        0.0130
      7 O         143.7340  142.7839  167.2931 O.3     1  UNL1       -0.4485
      8 C         143.3774  142.3503  168.6842 C.2     1  UNL1        0.3411
      9 O         144.1689  142.6340  169.9263 O.2     1  UNL1       -0.2449
     10 C         142.0902  141.5831  168.6148 C.ar    1  UNL1        0.0749
     11 C         141.2610  140.9162  169.6720 C.ar    1  UNL1        0.0062
     12 C         139.9931  140.2089  169.2955 C.ar    1  UNL1        0.0002
     13 C         139.5542  140.1684  167.8616 C.ar    1  UNL1       -0.0002
     14 C         140.3834  140.8353  166.8044 C.ar    1  UNL1       -0.0007
     15 C         141.6514  141.5427  167.1810 C.ar    1  UNL1        0.0199
     16 C         143.4551  142.3774  159.5362 C.3     1  UNL1        0.1149
     17 N         143.4983  142.1706  161.0213 N.am    1  UNL1       -0.2764
     18 C         142.5377  142.9049  161.9090 C.2     1  UNL1        0.2252
     19 O         141.5338  143.8458  161.3116 O.2     1  UNL1       -0.2749
     20 C         144.5022  141.2297  161.6186 C.3     1  UNL1        0.1107
     21 C         144.1756  139.7720  161.7546 C.3     1  UNL1        0.0939
     22 N         143.6676  139.2358  163.0602 N.3     1  UNL1       -0.2712
     23 C         142.3663  138.4912  163.1098 C.3     1  UNL1        0.0721
     24 C         141.8583  137.9551  164.4153 C.3     1  UNL1        0.0174
     25 C         142.6516  138.1635  165.6713 C.3     1  UNL1        0.0029
     26 C         143.9528  138.9081  165.6216 C.3     1  UNL1        0.0174
     27 C         144.4607  139.4442  164.3161 C.3     1  UNL1        0.0721
@<TRIPOS>BOND
     1    16    17    1
     2    17    20    1
     3    20    21    1
     4    21    22    1
     5    22    23    1
     6    23    24    1
     7    24    25    1
     8    25    26    1
     9    26    27    1
    10    17    18   am
    11    18    19    2
    12     1    18    1
    13     1     2    1
    14     2     3    1
    15     4     3    1
    16     4     5    1
    17     5     6    1
    18     4     7    1
    19     7     8    1
    20     8     9    2
    21     8    10    1
    22    10    11   ar
    23    11    12   ar
    24    12    13   ar
    25    13    14   ar
    26    14    15   ar
    27    27    22    1
    28     6     1    1
    29    15    10   ar
    30    15     4    1
@<TRIPOS>MOLECULE
*****
 27 30 0 0 0
SMALL
GASTEIGER

@<TRIPOS>ATOM
      1 C         142.5983  140.2117  167.9217 C.3     1  UNL1        0.0770
      2 C         142.7762  141.6191  167.4344 C.3     1  UNL1        0.0130
      3 C         143.1885  141.8749  166.0151 C.3     1  UNL1        0.0449
      4 C         143.4230  140.7232  165.0831 C.3     1  UNL1        0.1550
      5 C         143.2451  139.3158  165.5704 C.3     1  UNL1        0.0449
      6 C         142.8328  139.0600  166.9897 C.3     1  UNL1        0.0130
      7 O         143.6918  139.6782  164.0411 O.3     1  UNL1       -0.4485
      8 C         144.0739  140.3780  162.7705 C.2     1  UNL1        0.3411
      9 O         144.4266  139.7165  161.4713 O.2     1  UNL1       -0.2449
     10 C         144.0412  141.8555  163.0272 C.ar    1  UNL1        0.0749
     11 C         144.3258  143.0343  162.1443 C.ar    1  UNL1        0.0062
     12 C         144.2081  144.4262  162.6905 C.ar    1  UNL1        0.0002
     13 C         143.8059  144.6396  164.1198 C.ar    1  UNL1       -0.0002
     14 C         143.5213  143.4609  165.0027 C.ar    1  UNL1       -0.0007
     15 C         143.6390  142.0689  164.4565 C.ar    1  UNL1        0.0199
     16 C         140.3525  139.9302  171.1818 C.3     1  UNL1        0.1149
     17 N         140.7649  140.1860  169.7624 N.am    1  UNL1       -0.2764
     18 C         142.1860  139.9559  169.3411 C.2     1  UNL1        0.2252
     19 O         143.1948  139.4701  170.3393 O.2     1  UNL1       -0.2749
     20 C         139.7560  140.6718  168.7643 C.3     1  UNL1        0.1107
     21 C         139.1463  139.7118  167.7861 C.3     1  UNL1        0.0939
     22 N         139.4285  139.8547  166.3199 N.3     1  UNL1       -0.2712
     23 C         139.5496  138.6336  165.4570 C.3     1  UNL1        0.0721
     24 C         139.8319  138.7765  163.9907 C.3     1  UNL1        0.0174
     25 C         139.9930  140.1403  163.3873 C.3     1  UNL1        0.0029
     26 C         139.8719  141.3613  164.2502 C.3     1  UNL1        0.0174
     27 C         139.5897  141.2184  165.7165 C.3     1  UNL1        0.0721
@<TRIPOS>BOND
     1    16    17    1
     2    17    20    1
     3    20    21    1
     4    21    22    1
     5    22    23    1
     6    23    24    1
     7    24    25    1
     8    25    26    1
     9    26    27    1
    10    17    18   am
    11    18    19    2
    12     1    18    1
    13     1     2    1
    14     2     3    1
    15     4     3    1
    16     4     5    1
    17     5     6    1
    18     4     7    1
    19     7     8    1
    20     8     9    2
    21     8    10    1
    22    10    11   ar
    23    11    12   ar
    24    12    13   ar
    25    13    14   ar
    26    14    15   ar
    27    27    22    1
    28     6     1    1
    29    15    10   ar
    30    15     4    1
@<TRIPOS>MOLECULE
*****
 27 30 0 0 0
SMALL
GASTEIGER

@<TRIPOS>ATOM
      1 C         140.7483  138.5072  162.3356 C.3     1  UNL1        0.0770
      2 C         141.3156  139.4317  163.3717 C.3     1  UNL1        0.0130
      3 C         140.6627  139.5406  164.7177 C.3     1  UNL1        0.0449
      4 C         139.4427  138.7249  165.0277 C.3     1  UNL1        0.1550
      5 C         138.8755  137.8003  163.9917 C.3     1  UNL1        0.0449
      6 C         139.5283  137.6915  162.6456 C.3     1  UNL1        0.0130
      7 O         138.2242  137.9760  165.4798 O.3     1  UNL1       -0.4485
      8 C         137.9222  138.3900  166.8897 C.2     1  UNL1        0.3411
      9 O         136.7875  137.8875  167.7323 O.2     1  UNL1       -0.2449
     10 C         138.9541  139.3947  167.3089 C.ar    1  UNL1        0.0749
     11 C         139.1595  140.1479  168.5897 C.ar    1  UNL1        0.0062
     12 C         140.3045  141.1080  168.7198 C.ar    1  UNL1        0.0002
     13 C         141.2443  141.3150  167.5691 C.ar    1  UNL1       -0.0002
     14 C         141.0389  140.5618  166.2883 C.ar    1  UNL1       -0.0007
     15 C         139.8938  139.6017  166.1582 C.ar    1  UNL1        0.0199
     16 C         141.4630  139.0026  158.4633 C.3     1  UNL1        0.1149
     17 N         140.8102  139.1114  159.8095 N.am    1  UNL1       -0.2764
     18 C         141.4011  138.3984  160.9894 C.2     1  UNL1        0.2252
     19 O         142.6448  137.5764  160.8233 O.2     1  UNL1       -0.2749
     20 C         139.5665  139.9334  159.9756 C.3     1  UNL1        0.1107
     21 C         139.6645  141.3567  160.4390 C.3     1  UNL1        0.0939
     22 N         139.1855  141.7338  161.8096 N.3     1  UNL1       -0.2712
     23 C         139.9605  142.7227  162.6291 C.3     1  UNL1        0.0721
     24 C         139.4816  143.0998  163.9997 C.3     1  UNL1        0.0174
     25 C         138.2276  142.4881  164.5506 C.3     1  UNL1        0.0029
     26 C         137.4527  141.4993  163.7311 C.3     1  UNL1        0.0174
     27 C         137.9316  141.1222  162.3605 C.3     1  UNL1        0.0721
@<TRIPOS>BOND
     1    16    17    1
     2    17    20    1
     3    20    21    1
     4    21    22    1
     5    22    23    1
     6    23    24    1
     7    24    25    1
     8    25    26    1
     9    26    27    1
    10    17    18   am
    11    18    19    2
    12     1    18    1
    13     1     2    1
    14     2     3    1
    15     4     3    1
    16     4     5    1
    17     5     6    1
    18     4     7    1
    19     7     8    1
    20     8     9    2
    21     8    10    1
    22    10    11   ar
    23    11    12   ar
    24    12    13   ar
    25    13    14   ar
    26    14    15   ar
    27    27    22    1
    28     6     1    1
    29    15    10   ar
    30    15     4    1
@<TRIPOS>MOLECULE
*****
 27 30 0 0 0
SMALL
GASTEIGER

@<TRIPOS>ATOM
      1 C         142.3169  142.2419  163.7922 C.3     1  UNL1        0.0770
      2 C         143.0118  142.3513  165.1170 C.3     1  UNL1        0.0130
      3 C         142.3796  141.7679  166.3458 C.3     1  UNL1        0.0449
      4 C         141.0526  141.0751  166.2498 C.3     1  UNL1        0.1550
      5 C         140.3578  140.9658  164.9250 C.3     1  UNL1        0.0449
      6 C         140.9899  141.5492  163.6962 C.3     1  UNL1        0.0130
      7 O         139.7367  140.3576  166.3085 O.3     1  UNL1       -0.4485
      8 C         139.4962  139.9458  167.7307 C.2     1  UNL1        0.3411
      9 O         138.2986  139.2017  168.2427 O.2     1  UNL1       -0.2449
     10 C         140.6635  140.4089  168.5511 C.ar    1  UNL1        0.0749
     11 C         140.9748  140.2853  170.0132 C.ar    1  UNL1        0.0062
     12 C         142.2480  140.8595  170.5601 C.ar    1  UNL1        0.0002
     13 C         143.2100  141.5575  169.6449 C.ar    1  UNL1       -0.0002
     14 C         142.8987  141.6812  168.1828 C.ar    1  UNL1       -0.0007
     15 C         141.6254  141.1069  167.6359 C.ar    1  UNL1        0.0199
     16 C         144.7273  142.7023  160.6732 C.3     1  UNL1        0.1149
     17 N         144.0952  142.1189  161.9021 N.am    1  UNL1       -0.2764
     18 C         142.9491  142.8253  162.5633 C.2     1  UNL1        0.2252
     19 O         142.4350  144.1151  161.9957 O.2     1  UNL1       -0.2749
     20 C         144.6093  140.8291  162.4696 C.3     1  UNL1        0.1107
     21 C         144.0347  139.5235  162.0053 C.3     1  UNL1        0.0939
     22 N         143.0887  138.7644  162.8878 N.3     1  UNL1       -0.2712
     23 C         141.9127  138.0514  162.2885 C.3     1  UNL1        0.0721
     24 C         140.9667  137.2923  163.1709 C.3     1  UNL1        0.0174
     25 C         141.1966  137.2460  164.6526 C.3     1  UNL1        0.0029
     26 C         142.3724  137.9590  165.2517 C.3     1  UNL1        0.0174
     27 C         143.3185  138.7181  164.3693 C.3     1  UNL1        0.0721
@<TRIPOS>BOND
     1    16    17    1
     2    17    20    1
     3    20    21    1
     4    21    22    1
     5    22    23    1
     6    23    24    1
     7    24    25    1
     8    25    26    1
     9    26    27    1
    10    17    18   am
    11    18    19    2
    12     1    18    1
    13     1     2    1
    14     2     3    1
    15     4     3    1
    16     4     5    1
    17     5     6    1
    18     4     7    1
    19     7     8    1
    20     8     9    2
    21     8    10    1
    22    10    11   ar
    23    11    12   ar
    24    12    13   ar
    25    13    14   ar
    26    14    15   ar
    27    27    22    1
    28     6     1    1
    29    15    10   ar
    30    15     4    1
