@<TRIPOS>MOLECULE
*****
 46 52 0 0 0
SMALL
GASTEIGER

@<TRIPOS>ATOM
      1 N         140.7007  143.7952  159.8153 N.3     1  UNL1       -0.2676
      2 C         139.9985  143.9913  158.5044 C.3     1  UNL1        0.0746
      3 C         140.0130  142.9002  157.4753 C.3     1  UNL1        0.0449
      4 C         140.7298  141.6130  157.7570 C.3     1  UNL1        0.1391
      5 C         141.4320  141.4169  159.0678 C.3     1  UNL1        0.0449
      6 C         141.4175  142.5080  160.0970 C.3     1  UNL1        0.0746
      7 C         141.4011  140.2788  157.8959 C.2     1  UNL1        0.2529
      8 O         142.1758  139.8015  159.0883 O.2     1  UNL1       -0.2724
      9 N         141.1618  139.5057  156.6328 N.am    1  UNL1       -0.1907
     10 C         140.3425  140.3621  155.7134 C.2     1  UNL1        0.3219
     11 O         139.8727  139.9828  154.3404 O.2     1  UNL1       -0.2512
     12 N         140.0755  141.6645  156.4081 N.am    1  UNL1       -0.2222
     13 C         139.2919  142.8161  155.8517 C.ar    1  UNL1        0.1453
     14 C         139.9958  143.9140  155.1107 C.ar    1  UNL1        0.0922
     15 C         139.2120  145.0657  154.5544 C.ar    1  UNL1        0.2259
     16 O         139.9159  146.1636  153.8134 O.3     1  UNL1       -0.4919
     17 N         137.7244  145.1194  154.7390 N.ar    1  UNL1       -0.1894
     18 C         137.0205  144.0215  155.4800 C.ar    1  UNL1        0.2027
     19 N         137.8042  142.8699  156.0363 N.ar    1  UNL1       -0.2084
     20 H         140.8452  146.1300  153.6981 H       1  UNL1        0.2938
     21 C         141.6551  138.1196  156.3406 C.ar    1  UNL1        0.0622
     22 C         143.1231  137.8177  156.4011 C.ar    1  UNL1        0.0154
     23 C         143.6164  136.4316  156.1089 C.ar    1  UNL1        0.0013
     24 C         142.6417  135.3475  155.7563 C.ar    1  UNL1        0.0001
     25 C         141.1736  135.6494  155.6958 C.ar    1  UNL1        0.0013
     26 C         140.6803  137.0355  155.9880 C.ar    1  UNL1        0.0154
     27 C         143.1350  133.9614  155.4641 C.ar    1  UNL1        0.0001
     28 C         144.1337  133.3129  156.3762 C.ar    1  UNL1        0.0013
     29 C         144.6270  131.9268  156.0840 C.ar    1  UNL1        0.0145
     30 C         144.1216  131.1891  154.8796 C.ar    1  UNL1        0.0480
     31 C         143.1228  131.8376  153.9675 C.ar    1  UNL1        0.0145
     32 C         142.6295  133.2238  154.2597 C.ar    1  UNL1        0.0013
     33 N         144.6149  129.8030  154.5874 N.pl3   1  UNL1       -0.3028
     34 C         144.8887  128.8513  155.7141 C.3     1  UNL1        0.1231
     35 C         145.3820  127.4653  155.4219 C.3     1  UNL1        0.1636
     36 O         145.6015  127.0309  154.0030 O.3     1  UNL1       -0.3501
     37 C         145.3277  127.9826  152.8764 C.3     1  UNL1        0.1636
     38 C         144.8344  129.3687  153.1686 C.3     1  UNL1        0.1231
     39 C         140.6862  144.8864  160.8445 C.3     1  UNL1        0.1183
     40 C         142.0413  145.1300  163.5099 C.3     1  UNL1        0.0323
     41 C         140.5717  144.8379  163.4397 C.ar    1  UNL1       -0.0069
     42 C         139.7797  144.6677  164.7020 C.ar    1  UNL1       -0.0015
     43 C         138.3101  144.3757  164.6317 C.ar    1  UNL1        0.0203
     44 C         137.6325  144.2538  163.2991 C.ar    1  UNL1        0.0985
     45 N         138.4246  144.4241  162.0366 N.ar    1  UNL1       -0.2471
     46 C         139.8942  144.7161  162.1069 C.ar    1  UNL1        0.0712
@<TRIPOS>BOND
     1    40    41    1
     2    41    42   ar
     3    42    43   ar
     4    43    44   ar
     5    44    45   ar
     6    45    46   ar
     7    46    39    1
     8    39     1    1
     9     1     2    1
    10     2     3    1
    11     3     4    1
    12     4     5    1
    13     5     6    1
    14     4     7    1
    15     7     8    2
    16     7     9   am
    17     9    21    1
    18    21    22   ar
    19    22    23   ar
    20    23    24   ar
    21    24    27    1
    22    27    28   ar
    23    28    29   ar
    24    29    30   ar
    25    30    33    1
    26    33    34    1
    27    34    35    1
    28    35    36    1
    29    36    37    1
    30    37    38    1
    31    30    31   ar
    32    31    32   ar
    33    24    25   ar
    34    25    26   ar
    35     9    10   am
    36    10    11    2
    37    10    12   am
    38    12    13    1
    39    13    14   ar
    40    14    15   ar
    41    15    16    1
    42    15    17   ar
    43    17    18   ar
    44    18    19   ar
    45    46    41   ar
    46     6     1    1
    47    26    21   ar
    48    19    13   ar
    49    12     4    1
    50    32    27   ar
    51    38    33    1
    52    16    20    1
@<TRIPOS>MOLECULE
*****
 46 52 0 0 0
SMALL
GASTEIGER

@<TRIPOS>ATOM
      1 N         138.5362  142.0741  160.8286 N.3     1  UNL1       -0.2676
      2 C         139.0494  142.8550  159.6553 C.3     1  UNL1        0.0746
      3 C         139.7730  142.1521  158.5452 C.3     1  UNL1        0.0449
      4 C         139.9834  140.6683  158.6085 C.3     1  UNL1        0.1391
      5 C         139.4702  139.8874  159.7818 C.3     1  UNL1        0.0449
      6 C         138.7466  140.5903  160.8918 C.3     1  UNL1        0.0746
      7 C         140.2673  139.1973  158.5335 C.2     1  UNL1        0.2529
      8 O         139.8774  138.1710  159.5556 O.2     1  UNL1       -0.2724
      9 N         141.0096  138.9328  157.2571 N.am    1  UNL1       -0.1907
     10 C         141.1844  140.2405  156.5432 C.2     1  UNL1        0.3219
     11 O         141.8726  140.4404  155.2255 O.2     1  UNL1       -0.2512
     12 N         140.5503  141.3130  157.3783 N.am    1  UNL1       -0.2222
     13 C         140.4929  142.7737  157.0424 C.ar    1  UNL1        0.1453
     14 C         141.5961  143.6889  157.4845 C.ar    1  UNL1        0.0922
     15 C         141.5387  145.1497  157.1486 C.ar    1  UNL1        0.2259
     16 O         142.6418  146.0648  157.5907 O.3     1  UNL1       -0.4919
     17 N         140.3781  145.6953  156.3705 N.ar    1  UNL1       -0.1894
     18 C         139.2749  144.7802  155.9283 C.ar    1  UNL1        0.2027
     19 N         139.3324  143.3194  156.2643 N.ar    1  UNL1       -0.2084
     20 H         143.3668  145.7240  158.0767 H       1  UNL1        0.2938
     21 C         141.4922  137.5956  156.7787 C.ar    1  UNL1        0.0622
     22 C         140.7457  136.8717  155.6977 C.ar    1  UNL1        0.0154
     23 C         141.2284  135.5345  155.2193 C.ar    1  UNL1        0.0013
     24 C         142.4575  134.9212  155.8218 C.ar    1  UNL1        0.0001
     25 C         143.2040  135.6452  156.9028 C.ar    1  UNL1        0.0013
     26 C         142.7213  136.9824  157.3813 C.ar    1  UNL1        0.0154
     27 C         142.9401  133.5840  155.3434 C.ar    1  UNL1        0.0001
     28 C         142.3889  132.9964  154.0781 C.ar    1  UNL1        0.0013
     29 C         142.8715  131.6592  153.5997 C.ar    1  UNL1        0.0145
     30 C         143.9054  130.9095  154.3865 C.ar    1  UNL1        0.0480
     31 C         144.4567  131.4971  155.6518 C.ar    1  UNL1        0.0145
     32 C         143.9740  132.8344  156.1302 C.ar    1  UNL1        0.0013
     33 N         144.3881  129.5723  153.9081 N.pl3   1  UNL1       -0.3028
     34 C         144.3468  129.2392  152.4461 C.3     1  UNL1        0.1231
     35 C         144.8294  127.9020  151.9677 C.3     1  UNL1        0.1636
     36 O         145.3533  126.8979  152.9512 O.3     1  UNL1       -0.3501
     37 C         145.3946  127.2311  154.4132 C.3     1  UNL1        0.1636
     38 C         144.9120  128.5683  154.8916 C.3     1  UNL1        0.1231
     39 C         137.8125  142.7770  161.9387 C.3     1  UNL1        0.1183
     40 C         139.1230  145.4130  162.5169 C.3     1  UNL1        0.0323
     41 C         139.1510  144.3202  163.5440 C.ar    1  UNL1       -0.0069
     42 C         139.8343  144.5454  164.8602 C.ar    1  UNL1       -0.0015
     43 C         139.8623  143.4526  165.8874 C.ar    1  UNL1        0.0203
     44 C         139.2070  142.1347  165.5983 C.ar    1  UNL1        0.0985
     45 N         138.5238  141.9094  164.2821 N.ar    1  UNL1       -0.2471
     46 C         138.4958  143.0022  163.2549 C.ar    1  UNL1        0.0712
@<TRIPOS>BOND
     1    40    41    1
     2    41    42   ar
     3    42    43   ar
     4    43    44   ar
     5    44    45   ar
     6    45    46   ar
     7    46    39    1
     8    39     1    1
     9     1     2    1
    10     2     3    1
    11     3     4    1
    12     4     5    1
    13     5     6    1
    14     4     7    1
    15     7     8    2
    16     7     9   am
    17     9    21    1
    18    21    22   ar
    19    22    23   ar
    20    23    24   ar
    21    24    27    1
    22    27    28   ar
    23    28    29   ar
    24    29    30   ar
    25    30    33    1
    26    33    34    1
    27    34    35    1
    28    35    36    1
    29    36    37    1
    30    37    38    1
    31    30    31   ar
    32    31    32   ar
    33    24    25   ar
    34    25    26   ar
    35     9    10   am
    36    10    11    2
    37    10    12   am
    38    12    13    1
    39    13    14   ar
    40    14    15   ar
    41    15    16    1
    42    15    17   ar
    43    17    18   ar
    44    18    19   ar
    45    46    41   ar
    46     6     1    1
    47    26    21   ar
    48    19    13   ar
    49    12     4    1
    50    32    27   ar
    51    38    33    1
    52    16    20    1
@<TRIPOS>MOLECULE
*****
 46 52 0 0 0
SMALL
GASTEIGER

@<TRIPOS>ATOM
      1 N         140.5675  137.1883  155.6945 N.3     1  UNL1       -0.2676
      2 C         140.5802  137.4356  157.1739 C.3     1  UNL1        0.0746
      3 C         140.4342  138.8318  157.7021 C.3     1  UNL1        0.0449
      4 C         140.2756  139.9808  156.7509 C.3     1  UNL1        0.1391
      5 C         140.2629  139.7335  155.2716 C.3     1  UNL1        0.0449
      6 C         140.4089  138.3372  154.7433 C.3     1  UNL1        0.0746
      7 C         140.1098  141.2227  155.9262 C.2     1  UNL1        0.2529
      8 O         140.0608  141.2863  154.4283 O.2     1  UNL1       -0.2724
      9 N         140.0015  142.3899  156.8622 N.am    1  UNL1       -0.1907
     10 C         140.1004  141.8692  158.2656 C.2     1  UNL1        0.3219
     11 O         140.0404  142.6928  159.5177 O.2     1  UNL1       -0.2512
     12 N         140.2698  140.3804  158.1968 N.am    1  UNL1       -0.2222
     13 C         140.4089  139.4538  159.3681 C.ar    1  UNL1        0.1453
     14 C         139.1861  138.9539  160.0784 C.ar    1  UNL1        0.0922
     15 C         139.3253  138.0272  161.2497 C.ar    1  UNL1        0.2259
     16 O         138.1024  137.5273  161.9600 O.3     1  UNL1       -0.4919
     17 N         140.6875  137.6006  161.7108 N.ar    1  UNL1       -0.1894
     18 C         141.9104  138.1006  161.0005 C.ar    1  UNL1        0.2027
     19 N         141.7711  139.0272  159.8292 N.ar    1  UNL1       -0.2084
     20 H         137.2515  137.7938  161.6720 H       1  UNL1        0.2938
     21 C         139.8253  143.8255  156.4648 C.ar    1  UNL1        0.0622
     22 C         138.5748  144.2604  155.7598 C.ar    1  UNL1        0.0154
     23 C         138.3986  145.6960  155.3624 C.ar    1  UNL1        0.0013
     24 C         139.4728  146.6966  155.6699 C.ar    1  UNL1        0.0001
     25 C         140.7234  146.2617  156.3749 C.ar    1  UNL1        0.0013
     26 C         140.8996  144.8261  156.7723 C.ar    1  UNL1        0.0154
     27 C         139.2966  148.1322  155.2724 C.ar    1  UNL1        0.0001
     28 C         138.5704  149.0785  156.1819 C.ar    1  UNL1        0.0013
     29 C         138.3942  150.5141  155.7845 C.ar    1  UNL1        0.0145
     30 C         138.9442  151.0035  154.4775 C.ar    1  UNL1        0.0480
     31 C         139.6703  150.0572  153.5680 C.ar    1  UNL1        0.0145
     32 C         139.8466  148.6215  153.9655 C.ar    1  UNL1        0.0013
     33 N         138.7679  152.4391  154.0800 N.pl3   1  UNL1       -0.3028
     34 C         138.3827  153.4603  155.1089 C.3     1  UNL1        0.1231
     35 C         138.2064  154.8959  154.7115 C.3     1  UNL1        0.1636
     36 O         138.4155  155.3103  153.2851 O.3     1  UNL1       -0.3501
     37 C         138.8008  154.2890  152.2562 C.3     1  UNL1        0.1636
     38 C         138.9770  152.8534  152.6536 C.3     1  UNL1        0.1231
     39 C         140.7135  135.7919  155.1662 C.3     1  UNL1        0.1183
     40 C         141.4845  133.3636  153.5822 C.3     1  UNL1        0.0323
     41 C         142.2455  133.7216  154.8242 C.ar    1  UNL1       -0.0069
     42 C         143.3919  132.8655  155.2743 C.ar    1  UNL1       -0.0015
     43 C         144.1529  133.2235  156.5164 C.ar    1  UNL1        0.0203
     44 C         143.7675  134.4376  157.3084 C.ar    1  UNL1        0.0985
     45 N         142.6210  135.2938  156.8583 N.ar    1  UNL1       -0.2471
     46 C         141.8600  134.9358  155.6162 C.ar    1  UNL1        0.0712
@<TRIPOS>BOND
     1    40    41    1
     2    41    42   ar
     3    42    43   ar
     4    43    44   ar
     5    44    45   ar
     6    45    46   ar
     7    46    39    1
     8    39     1    1
     9     1     2    1
    10     2     3    1
    11     3     4    1
    12     4     5    1
    13     5     6    1
    14     4     7    1
    15     7     8    2
    16     7     9   am
    17     9    21    1
    18    21    22   ar
    19    22    23   ar
    20    23    24   ar
    21    24    27    1
    22    27    28   ar
    23    28    29   ar
    24    29    30   ar
    25    30    33    1
    26    33    34    1
    27    34    35    1
    28    35    36    1
    29    36    37    1
    30    37    38    1
    31    30    31   ar
    32    31    32   ar
    33    24    25   ar
    34    25    26   ar
    35     9    10   am
    36    10    11    2
    37    10    12   am
    38    12    13    1
    39    13    14   ar
    40    14    15   ar
    41    15    16    1
    42    15    17   ar
    43    17    18   ar
    44    18    19   ar
    45    46    41   ar
    46     6     1    1
    47    26    21   ar
    48    19    13   ar
    49    12     4    1
    50    32    27   ar
    51    38    33    1
    52    16    20    1
@<TRIPOS>MOLECULE
*****
 46 52 0 0 0
SMALL
GASTEIGER

@<TRIPOS>ATOM
      1 N         143.4281  133.3889  155.3890 N.3     1  UNL1       -0.2676
      2 C         142.9863  134.6503  154.7081 C.3     1  UNL1        0.0746
      3 C         142.6979  135.8788  155.5190 C.3     1  UNL1        0.0449
      4 C         142.8512  135.8459  157.0108 C.3     1  UNL1        0.1391
      5 C         143.2930  134.5845  157.6917 C.3     1  UNL1        0.0449
      6 C         143.5814  133.3560  156.8808 C.3     1  UNL1        0.0746
      7 C         142.9596  135.9634  158.5022 C.2     1  UNL1        0.2529
      8 O         143.3755  134.8731  159.4447 O.2     1  UNL1       -0.2724
      9 N         142.5791  137.3628  158.8858 N.am    1  UNL1       -0.1907
     10 C         142.2355  138.1101  157.6314 C.2     1  UNL1        0.3219
     11 O         141.8002  139.5432  157.5501 O.2     1  UNL1       -0.2512
     12 N         142.4037  137.1726  156.4726 N.am    1  UNL1       -0.2222
     13 C         142.1660  137.5036  155.0290 C.ar    1  UNL1        0.1453
     14 C         143.2502  138.1513  154.2197 C.ar    1  UNL1        0.0922
     15 C         143.0125  138.4823  152.7761 C.ar    1  UNL1        0.2259
     16 O         144.0967  139.1299  151.9668 O.3     1  UNL1       -0.4919
     17 N         141.6906  138.1656  152.1418 N.ar    1  UNL1       -0.1894
     18 C         140.6064  137.5179  152.9511 C.ar    1  UNL1        0.2027
     19 N         140.8441  137.1870  154.3947 N.ar    1  UNL1       -0.2084
     20 H         144.9225  139.3277  152.3630 H       1  UNL1        0.2938
     21 C         142.5477  137.9175  160.2791 C.ar    1  UNL1        0.0622
     22 C         141.2452  138.3473  160.8861 C.ar    1  UNL1        0.0154
     23 C         141.2138  138.9020  162.2794 C.ar    1  UNL1        0.0013
     24 C         142.4849  139.0268  163.0658 C.ar    1  UNL1        0.0001
     25 C         143.7876  138.5970  162.4588 C.ar    1  UNL1        0.0013
     26 C         143.8190  138.0423  161.0655 C.ar    1  UNL1        0.0154
     27 C         142.4535  139.5815  164.4591 C.ar    1  UNL1        0.0001
     28 C         142.7729  138.6954  165.6265 C.ar    1  UNL1        0.0013
     29 C         142.7415  139.2500  167.0198 C.ar    1  UNL1        0.0145
     30 C         142.3907  140.6909  167.2458 C.ar    1  UNL1        0.0480
     31 C         142.0713  141.5770  166.0784 C.ar    1  UNL1        0.0145
     32 C         142.1027  141.0223  164.6850 C.ar    1  UNL1        0.0013
     33 N         142.3593  141.2455  168.6391 N.pl3   1  UNL1       -0.3028
     34 C         141.4494  140.6407  169.6668 C.3     1  UNL1        0.1231
     35 C         141.4180  141.1954  171.0601 C.3     1  UNL1        0.1636
     36 O         142.2965  142.3549  171.4257 O.3     1  UNL1       -0.3501
     37 C         143.2065  142.9597  170.3980 C.3     1  UNL1        0.1636
     38 C         143.2379  142.4050  169.0047 C.3     1  UNL1        0.1231
     39 C         143.7165  132.1603  154.5782 C.3     1  UNL1        0.1183
     40 C         141.0385  130.8399  154.8690 C.3     1  UNL1        0.0323
     41 C         142.2748  130.1434  155.3552 C.ar    1  UNL1       -0.0069
     42 C         142.1722  128.7867  155.9868 C.ar    1  UNL1       -0.0015
     43 C         143.4086  128.0903  156.4729 C.ar    1  UNL1        0.0203
     44 C         144.7476  128.7505  156.3275 C.ar    1  UNL1        0.0985
     45 N         144.8503  130.1072  155.6959 N.ar    1  UNL1       -0.2471
     46 C         143.6139  130.8037  155.2097 C.ar    1  UNL1        0.0712
@<TRIPOS>BOND
     1    40    41    1
     2    41    42   ar
     3    42    43   ar
     4    43    44   ar
     5    44    45   ar
     6    45    46   ar
     7    46    39    1
     8    39     1    1
     9     1     2    1
    10     2     3    1
    11     3     4    1
    12     4     5    1
    13     5     6    1
    14     4     7    1
    15     7     8    2
    16     7     9   am
    17     9    21    1
    18    21    22   ar
    19    22    23   ar
    20    23    24   ar
    21    24    27    1
    22    27    28   ar
    23    28    29   ar
    24    29    30   ar
    25    30    33    1
    26    33    34    1
    27    34    35    1
    28    35    36    1
    29    36    37    1
    30    37    38    1
    31    30    31   ar
    32    31    32   ar
    33    24    25   ar
    34    25    26   ar
    35     9    10   am
    36    10    11    2
    37    10    12   am
    38    12    13    1
    39    13    14   ar
    40    14    15   ar
    41    15    16    1
    42    15    17   ar
    43    17    18   ar
    44    18    19   ar
    45    46    41   ar
    46     6     1    1
    47    26    21   ar
    48    19    13   ar
    49    12     4    1
    50    32    27   ar
    51    38    33    1
    52    16    20    1
@<TRIPOS>MOLECULE
*****
 46 52 0 0 0
SMALL
GASTEIGER

@<TRIPOS>ATOM
      1 N         141.9900  135.7557  154.6163 N.3     1  UNL1       -0.2676
      2 C         140.7566  136.5643  154.3432 C.3     1  UNL1        0.0746
      3 C         140.1721  137.4279  155.4213 C.3     1  UNL1        0.0449
      4 C         140.8210  137.4829  156.7725 C.3     1  UNL1        0.1391
      5 C         142.0545  136.6743  157.0456 C.3     1  UNL1        0.0449
      6 C         142.6390  135.8107  155.9675 C.3     1  UNL1        0.0746
      7 C         141.3567  137.6386  158.1650 C.2     1  UNL1        0.2529
      8 O         142.5710  136.9579  158.7237 O.2     1  UNL1       -0.2724
      9 N         140.4649  138.5945  158.9006 N.am    1  UNL1       -0.1907
     10 C         139.3780  139.0296  157.9628 C.2     1  UNL1        0.3219
     11 O         138.2664  139.9840  158.2838 O.2     1  UNL1       -0.2512
     12 N         139.5981  138.3426  156.6476 N.am    1  UNL1       -0.2222
     13 C         138.7451  138.4895  155.4225 C.ar    1  UNL1        0.1453
     14 C         138.9835  139.6273  154.4747 C.ar    1  UNL1        0.0922
     15 C         138.1304  139.7741  153.2496 C.ar    1  UNL1        0.2259
     16 O         138.3687  140.9120  152.3017 O.3     1  UNL1       -0.4919
     17 N         137.0390  138.7831  152.9724 N.ar    1  UNL1       -0.1894
     18 C         136.8007  137.6453  153.9203 C.ar    1  UNL1        0.2027
     19 N         137.6538  137.4985  155.1453 N.ar    1  UNL1       -0.2084
     20 H         139.0505  141.5310  152.4748 H       1  UNL1        0.2938
     21 C         140.6309  139.0375  160.3240 C.ar    1  UNL1        0.0622
     22 C         141.5679  140.1608  160.6555 C.ar    1  UNL1        0.0154
     23 C         141.7338  140.6037  162.0790 C.ar    1  UNL1        0.0013
     24 C         140.9627  139.9234  163.1709 C.ar    1  UNL1        0.0001
     25 C         140.0256  138.8000  162.8394 C.ar    1  UNL1        0.0013
     26 C         139.8597  138.3571  161.4160 C.ar    1  UNL1        0.0154
     27 C         141.1287  140.3664  164.5944 C.ar    1  UNL1        0.0001
     28 C         142.3096  141.2042  164.9863 C.ar    1  UNL1        0.0013
     29 C         142.4755  141.6471  166.4098 C.ar    1  UNL1        0.0145
     30 C         141.4605  141.2523  167.4414 C.ar    1  UNL1        0.0480
     31 C         140.2796  140.4146  167.0494 C.ar    1  UNL1        0.0145
     32 C         140.1137  139.9716  165.6258 C.ar    1  UNL1        0.0013
     33 N         141.6264  141.6953  168.8648 N.pl3   1  UNL1       -0.3028
     34 C         140.6449  141.2501  169.9081 C.3     1  UNL1        0.1231
     35 C         140.8109  141.6931  171.3315 C.3     1  UNL1        0.1636
     36 O         141.9583  142.5813  171.7117 O.3     1  UNL1       -0.3501
     37 C         142.9398  143.0264  170.6684 C.3     1  UNL1        0.1636
     38 C         142.7739  142.5835  169.2449 C.3     1  UNL1        0.1231
     39 C         142.5746  134.8920  153.5381 C.3     1  UNL1        0.1183
     40 C         143.5817  132.5291  155.0883 C.3     1  UNL1        0.0323
     41 C         142.5103  132.3465  154.0545 C.ar    1  UNL1       -0.0069
     42 C         141.9424  130.9825  153.7958 C.ar    1  UNL1       -0.0015
     43 C         140.8710  130.7999  152.7621 C.ar    1  UNL1        0.0203
     44 C         140.3674  131.9812  151.9870 C.ar    1  UNL1        0.0985
     45 N         140.9353  133.3453  152.2456 N.ar    1  UNL1       -0.2471
     46 C         142.0067  133.5280  153.2794 C.ar    1  UNL1        0.0712
@<TRIPOS>BOND
     1    40    41    1
     2    41    42   ar
     3    42    43   ar
     4    43    44   ar
     5    44    45   ar
     6    45    46   ar
     7    46    39    1
     8    39     1    1
     9     1     2    1
    10     2     3    1
    11     3     4    1
    12     4     5    1
    13     5     6    1
    14     4     7    1
    15     7     8    2
    16     7     9   am
    17     9    21    1
    18    21    22   ar
    19    22    23   ar
    20    23    24   ar
    21    24    27    1
    22    27    28   ar
    23    28    29   ar
    24    29    30   ar
    25    30    33    1
    26    33    34    1
    27    34    35    1
    28    35    36    1
    29    36    37    1
    30    37    38    1
    31    30    31   ar
    32    31    32   ar
    33    24    25   ar
    34    25    26   ar
    35     9    10   am
    36    10    11    2
    37    10    12   am
    38    12    13    1
    39    13    14   ar
    40    14    15   ar
    41    15    16    1
    42    15    17   ar
    43    17    18   ar
    44    18    19   ar
    45    46    41   ar
    46     6     1    1
    47    26    21   ar
    48    19    13   ar
    49    12     4    1
    50    32    27   ar
    51    38    33    1
    52    16    20    1
@<TRIPOS>MOLECULE
*****
 46 52 0 0 0
SMALL
GASTEIGER

@<TRIPOS>ATOM
      1 N         145.4289  140.5137  153.9777 N.3     1  UNL1       -0.2676
      2 C         144.3427  139.4889  153.8370 C.3     1  UNL1        0.0746
      3 C         143.5005  139.1211  155.0225 C.3     1  UNL1        0.0449
      4 C         143.7445  139.7782  156.3487 C.3     1  UNL1        0.1391
      5 C         144.8307  140.8031  156.4893 C.3     1  UNL1        0.0449
      6 C         145.6729  141.1708  155.3039 C.3     1  UNL1        0.0746
      7 C         143.8708  140.3477  157.7306 C.2     1  UNL1        0.2529
      8 O         144.8614  141.3848  158.1697 O.2     1  UNL1       -0.2724
      9 N         142.8324  139.6978  158.5965 N.am    1  UNL1       -0.1907
     10 C         142.0644  138.7267  157.7496 C.2     1  UNL1        0.3219
     11 O         140.9317  137.8584  158.2108 O.2     1  UNL1       -0.2512
     12 N         142.6281  138.7764  156.3604 N.am    1  UNL1       -0.2222
     13 C         142.1580  137.9665  155.1886 C.ar    1  UNL1        0.1453
     14 C         142.6361  136.5559  155.0116 C.ar    1  UNL1        0.0922
     15 C         142.1660  135.7461  153.8398 C.ar    1  UNL1        0.2259
     16 O         142.6441  134.3354  153.6628 O.3     1  UNL1       -0.4919
     17 N         141.2176  136.3469  152.8449 N.ar    1  UNL1       -0.1894
     18 C         140.7394  137.7576  153.0220 C.ar    1  UNL1        0.2027
     19 N         141.2096  138.5673  154.1938 N.ar    1  UNL1       -0.2084
     20 H         143.2365  133.9601  154.2842 H       1  UNL1        0.2938
     21 C         142.6025  139.9710  160.0533 C.ar    1  UNL1        0.0622
     22 C         143.6686  139.6414  161.0556 C.ar    1  UNL1        0.0154
     23 C         143.4387  139.9147  162.5125 C.ar    1  UNL1        0.0013
     24 C         142.1426  140.5175  162.9670 C.ar    1  UNL1        0.0001
     25 C         141.0764  140.8471  161.9647 C.ar    1  UNL1        0.0013
     26 C         141.3063  140.5738  160.5079 C.ar    1  UNL1        0.0154
     27 C         141.9127  140.7907  164.4239 C.ar    1  UNL1        0.0001
     28 C         142.3388  139.7850  165.4520 C.ar    1  UNL1        0.0013
     29 C         142.1089  140.0582  166.9088 C.ar    1  UNL1        0.0145
     30 C         141.4527  141.3372  167.3377 C.ar    1  UNL1        0.0480
     31 C         141.0266  142.3429  166.3096 C.ar    1  UNL1        0.0145
     32 C         141.2566  142.0697  164.8526 C.ar    1  UNL1        0.0013
     33 N         141.2228  141.6105  168.7945 N.pl3   1  UNL1       -0.3028
     34 C         141.9688  140.8247  169.8319 C.3     1  UNL1        0.1231
     35 C         141.7389  141.0979  171.2887 C.3     1  UNL1        0.1636
     36 O         140.7629  142.1569  171.7082 O.3     1  UNL1       -0.3501
     37 C         140.0169  142.9427  170.6709 C.3     1  UNL1        0.1636
     38 C         140.2469  142.6695  169.2140 C.3     1  UNL1        0.1231
     39 C         146.2711  140.8816  152.7922 C.3     1  UNL1        0.1183
     40 C         145.8188  143.8438  152.6477 C.3     1  UNL1        0.0323
     41 C         147.1992  143.3065  152.8838 C.ar    1  UNL1       -0.0069
     42 C         148.3535  144.2503  153.0477 C.ar    1  UNL1       -0.0015
     43 C         149.7339  143.7130  153.2838 C.ar    1  UNL1        0.0203
     44 C         149.9601  142.2319  153.3561 C.ar    1  UNL1        0.0985
     45 N         148.8058  141.2881  153.1922 N.ar    1  UNL1       -0.2471
     46 C         147.4254  141.8253  152.9561 C.ar    1  UNL1        0.0712
@<TRIPOS>BOND
     1    40    41    1
     2    41    42   ar
     3    42    43   ar
     4    43    44   ar
     5    44    45   ar
     6    45    46   ar
     7    46    39    1
     8    39     1    1
     9     1     2    1
    10     2     3    1
    11     3     4    1
    12     4     5    1
    13     5     6    1
    14     4     7    1
    15     7     8    2
    16     7     9   am
    17     9    21    1
    18    21    22   ar
    19    22    23   ar
    20    23    24   ar
    21    24    27    1
    22    27    28   ar
    23    28    29   ar
    24    29    30   ar
    25    30    33    1
    26    33    34    1
    27    34    35    1
    28    35    36    1
    29    36    37    1
    30    37    38    1
    31    30    31   ar
    32    31    32   ar
    33    24    25   ar
    34    25    26   ar
    35     9    10   am
    36    10    11    2
    37    10    12   am
    38    12    13    1
    39    13    14   ar
    40    14    15   ar
    41    15    16    1
    42    15    17   ar
    43    17    18   ar
    44    18    19   ar
    45    46    41   ar
    46     6     1    1
    47    26    21   ar
    48    19    13   ar
    49    12     4    1
    50    32    27   ar
    51    38    33    1
    52    16    20    1
@<TRIPOS>MOLECULE
*****
 46 52 0 0 0
SMALL
GASTEIGER

@<TRIPOS>ATOM
      1 N         140.0900  147.2565  154.6119 N.3     1  UNL1       -0.2676
      2 C         140.9516  146.1033  154.1903 C.3     1  UNL1        0.0746
      3 C         141.4067  145.0968  155.2051 C.3     1  UNL1        0.0449
      4 C         141.0001  145.2434  156.6414 C.3     1  UNL1        0.1391
      5 C         140.1385  146.3966  157.0631 C.3     1  UNL1        0.0449
      6 C         139.6834  147.4031  156.0483 C.3     1  UNL1        0.0746
      7 C         140.6752  145.2589  158.1058 C.2     1  UNL1        0.2529
      8 O         139.8382  146.2836  158.8124 O.2     1  UNL1       -0.2724
      9 N         141.3343  144.0697  158.7395 N.am    1  UNL1       -0.1907
     10 C         142.0666  143.3192  157.6667 C.2     1  UNL1        0.3219
     11 O         142.8651  142.0639  157.8571 O.2     1  UNL1       -0.2512
     12 N         141.8600  144.0446  156.3701 N.am    1  UNL1       -0.2222
     13 C         142.4157  143.6420  155.0363 C.ar    1  UNL1        0.1453
     14 C         143.7505  144.1624  154.5918 C.ar    1  UNL1        0.0922
     15 C         144.3061  143.7598  153.2580 C.ar    1  UNL1        0.2259
     16 O         145.6409  144.2801  152.8135 O.3     1  UNL1       -0.4919
     17 N         143.5270  142.8367  152.3686 N.ar    1  UNL1       -0.1894
     18 C         142.1923  142.3163  152.8131 C.ar    1  UNL1        0.2027
     19 N         141.6366  142.7189  154.1469 N.ar    1  UNL1       -0.2084
     20 H         146.1276  144.8567  153.3691 H       1  UNL1        0.2938
     21 C         141.2721  143.6965  160.1909 C.ar    1  UNL1        0.0622
     22 C         140.6173  142.4131  160.6079 C.ar    1  UNL1        0.0154
     23 C         140.5551  142.0399  162.0594 C.ar    1  UNL1        0.0013
     24 C         141.1477  142.9500  163.0939 C.ar    1  UNL1        0.0001
     25 C         141.8026  144.2335  162.6769 C.ar    1  UNL1        0.0013
     26 C         141.8648  144.6067  161.2254 C.ar    1  UNL1        0.0154
     27 C         141.0855  142.5768  164.5454 C.ar    1  UNL1        0.0001
     28 C         140.1843  143.3328  165.4762 C.ar    1  UNL1        0.0013
     29 C         140.1221  142.9595  166.9277 C.ar    1  UNL1        0.0145
     30 C         140.9612  141.8304  167.4484 C.ar    1  UNL1        0.0480
     31 C         141.8624  141.0744  166.5176 C.ar    1  UNL1        0.0145
     32 C         141.9246  141.4477  165.0660 C.ar    1  UNL1        0.0013
     33 N         140.8990  141.4571  168.8999 N.pl3   1  UNL1       -0.3028
     34 C         139.9765  140.3653  169.3547 C.3     1  UNL1        0.1231
     35 C         139.9143  139.9921  170.8062 C.3     1  UNL1        0.1636
     36 O         140.7746  140.7107  171.8028 O.3     1  UNL1       -0.3501
     37 C         141.6971  141.8026  171.3480 C.3     1  UNL1        0.1636
     38 C         141.7593  142.1758  169.8966 C.3     1  UNL1        0.1231
     39 C         139.6348  148.2630  153.5971 C.3     1  UNL1        0.1183
     40 C         139.0532  150.8045  155.0813 C.3     1  UNL1        0.0323
     41 C         140.1673  150.7602  154.0778 C.ar    1  UNL1       -0.0069
     42 C         140.9905  151.9865  153.8164 C.ar    1  UNL1       -0.0015
     43 C         142.1045  151.9421  152.8129 C.ar    1  UNL1        0.0203
     44 C         142.3953  150.6714  152.0708 C.ar    1  UNL1        0.0985
     45 N         141.5721  149.4450  152.3322 N.ar    1  UNL1       -0.2471
     46 C         140.4580  149.4894  153.3357 C.ar    1  UNL1        0.0712
@<TRIPOS>BOND
     1    40    41    1
     2    41    42   ar
     3    42    43   ar
     4    43    44   ar
     5    44    45   ar
     6    45    46   ar
     7    46    39    1
     8    39     1    1
     9     1     2    1
    10     2     3    1
    11     3     4    1
    12     4     5    1
    13     5     6    1
    14     4     7    1
    15     7     8    2
    16     7     9   am
    17     9    21    1
    18    21    22   ar
    19    22    23   ar
    20    23    24   ar
    21    24    27    1
    22    27    28   ar
    23    28    29   ar
    24    29    30   ar
    25    30    33    1
    26    33    34    1
    27    34    35    1
    28    35    36    1
    29    36    37    1
    30    37    38    1
    31    30    31   ar
    32    31    32   ar
    33    24    25   ar
    34    25    26   ar
    35     9    10   am
    36    10    11    2
    37    10    12   am
    38    12    13    1
    39    13    14   ar
    40    14    15   ar
    41    15    16    1
    42    15    17   ar
    43    17    18   ar
    44    18    19   ar
    45    46    41   ar
    46     6     1    1
    47    26    21   ar
    48    19    13   ar
    49    12     4    1
    50    32    27   ar
    51    38    33    1
    52    16    20    1
@<TRIPOS>MOLECULE
*****
 46 52 0 0 0
SMALL
GASTEIGER

@<TRIPOS>ATOM
      1 N         139.6731  142.6073  161.4852 N.3     1  UNL1       -0.2676
      2 C         140.0304  143.3612  160.2386 C.3     1  UNL1        0.0746
      3 C         140.4792  142.6182  159.0154 C.3     1  UNL1        0.0449
      4 C         140.5707  141.1211  159.0386 C.3     1  UNL1        0.1391
      5 C         140.2134  140.3672  160.2851 C.3     1  UNL1        0.0449
      6 C         139.7646  141.1102  161.5084 C.3     1  UNL1        0.0746
      7 C         140.7103  139.6329  158.9127 C.2     1  UNL1        0.2529
      8 O         140.4257  138.6266  159.9879 O.2     1  UNL1       -0.2724
      9 N         141.1846  139.3278  157.5227 N.am    1  UNL1       -0.1907
     10 C         141.3380  140.6275  156.7895 C.2     1  UNL1        0.3219
     11 O         141.7913  140.7902  155.3690 O.2     1  UNL1       -0.2512
     12 N         140.9587  141.7358  157.7264 N.am    1  UNL1       -0.2222
     13 C         140.9659  143.2014  157.4073 C.ar    1  UNL1        0.1453
     14 C         139.7749  143.8314  156.7482 C.ar    1  UNL1        0.0922
     15 C         139.7822  145.2970  156.4290 C.ar    1  UNL1        0.2259
     16 O         138.5912  145.9270  155.7699 O.3     1  UNL1       -0.4919
     17 N         140.9806  146.1327  156.7690 N.ar    1  UNL1       -0.1894
     18 C         142.1717  145.5027  157.4281 C.ar    1  UNL1        0.2027
     19 N         142.1643  144.0371  157.7472 N.ar    1  UNL1       -0.2084
     20 H         137.8426  145.4051  155.5575 H       1  UNL1        0.2938
     21 C         141.4574  137.9628  156.9639 C.ar    1  UNL1        0.0622
     22 C         140.5538  137.3879  155.9138 C.ar    1  UNL1        0.0154
     23 C         140.8267  136.0229  155.3550 C.ar    1  UNL1        0.0013
     24 C         142.0031  135.2327  155.8464 C.ar    1  UNL1        0.0001
     25 C         142.9068  135.8077  156.8966 C.ar    1  UNL1        0.0013
     26 C         142.6339  137.1727  157.4554 C.ar    1  UNL1        0.0154
     27 C         142.2760  133.8677  155.2877 C.ar    1  UNL1        0.0001
     28 C         142.5492  132.7193  156.2132 C.ar    1  UNL1        0.0013
     29 C         142.8221  131.3543  155.6545 C.ar    1  UNL1        0.0145
     30 C         142.8217  131.1376  154.1701 C.ar    1  UNL1        0.0480
     31 C         142.5485  132.2860  153.2446 C.ar    1  UNL1        0.0145
     32 C         142.2756  133.6511  153.8034 C.ar    1  UNL1        0.0013
     33 N         143.0946  129.7726  153.6114 N.pl3   1  UNL1       -0.3028
     34 C         141.9794  128.7775  153.4844 C.3     1  UNL1        0.1231
     35 C         142.2522  127.4124  152.9256 C.3     1  UNL1        0.1636
     36 O         143.6403  127.0425  152.4939 O.3     1  UNL1       -0.3501
     37 C         144.7555  128.0376  152.6209 C.3     1  UNL1        0.1636
     38 C         144.4826  129.4026  153.1796 C.3     1  UNL1        0.1231
     39 C         139.2243  143.3503  162.7085 C.3     1  UNL1        0.1183
     40 C         138.1284  144.6067  165.2026 C.3     1  UNL1        0.0323
     41 C         139.3190  143.6978  165.2815 C.ar    1  UNL1       -0.0069
     42 C         139.9617  143.4170  166.6075 C.ar    1  UNL1       -0.0015
     43 C         141.1523  142.5081  166.6864 C.ar    1  UNL1        0.0203
     44 C         141.7003  141.8799  165.4394 C.ar    1  UNL1        0.0985
     45 N         141.0576  142.1607  164.1134 N.ar    1  UNL1       -0.2471
     46 C         139.8670  143.0696  164.0344 C.ar    1  UNL1        0.0712
@<TRIPOS>BOND
     1    40    41    1
     2    41    42   ar
     3    42    43   ar
     4    43    44   ar
     5    44    45   ar
     6    45    46   ar
     7    46    39    1
     8    39     1    1
     9     1     2    1
    10     2     3    1
    11     3     4    1
    12     4     5    1
    13     5     6    1
    14     4     7    1
    15     7     8    2
    16     7     9   am
    17     9    21    1
    18    21    22   ar
    19    22    23   ar
    20    23    24   ar
    21    24    27    1
    22    27    28   ar
    23    28    29   ar
    24    29    30   ar
    25    30    33    1
    26    33    34    1
    27    34    35    1
    28    35    36    1
    29    36    37    1
    30    37    38    1
    31    30    31   ar
    32    31    32   ar
    33    24    25   ar
    34    25    26   ar
    35     9    10   am
    36    10    11    2
    37    10    12   am
    38    12    13    1
    39    13    14   ar
    40    14    15   ar
    41    15    16    1
    42    15    17   ar
    43    17    18   ar
    44    18    19   ar
    45    46    41   ar
    46     6     1    1
    47    26    21   ar
    48    19    13   ar
    49    12     4    1
    50    32    27   ar
    51    38    33    1
    52    16    20    1
@<TRIPOS>MOLECULE
*****
 46 52 0 0 0
SMALL
GASTEIGER

@<TRIPOS>ATOM
      1 N         143.2878  139.5949  153.6421 N.3     1  UNL1       -0.2676
      2 C         144.4695  140.5146  153.7302 C.3     1  UNL1        0.0746
      3 C         144.8408  141.1346  155.0446 C.3     1  UNL1        0.0449
      4 C         144.0305  140.8349  156.2708 C.3     1  UNL1        0.1391
      5 C         142.8488  139.9152  156.1826 C.3     1  UNL1        0.0449
      6 C         142.4775  139.2952  154.8683 C.3     1  UNL1        0.0746
      7 C         143.3183  140.6298  157.5750 C.2     1  UNL1        0.2529
      8 O         142.1098  139.7686  157.7937 O.2     1  UNL1       -0.2724
      9 N         144.0269  141.4371  158.6221 N.am    1  UNL1       -0.1907
     10 C         145.1770  142.1412  157.9650 C.2     1  UNL1        0.3219
     11 O         146.1533  143.0566  158.6421 O.2     1  UNL1       -0.2512
     12 N         145.1792  141.7690  156.5119 N.am    1  UNL1       -0.2222
     13 C         146.1582  142.2469  155.4808 C.ar    1  UNL1        0.1453
     14 C         147.5004  141.5884  155.3588 C.ar    1  UNL1        0.0922
     15 C         148.4793  142.0664  154.3277 C.ar    1  UNL1        0.2259
     16 O         149.8215  141.4079  154.2057 O.3     1  UNL1       -0.4919
     17 N         148.1161  143.2029  153.4186 N.ar    1  UNL1       -0.1894
     18 C         146.7739  143.8614  153.5406 C.ar    1  UNL1        0.2027
     19 N         145.7950  143.3834  154.5717 N.ar    1  UNL1       -0.2084
     20 H         150.0484  140.6980  154.7736 H       1  UNL1        0.2938
     21 C         143.6513  141.5249  160.0716 C.ar    1  UNL1        0.0622
     22 C         143.2825  142.8491  160.6719 C.ar    1  UNL1        0.0154
     23 C         142.9069  142.9369  162.1214 C.ar    1  UNL1        0.0013
     24 C         142.9002  141.7006  162.9707 C.ar    1  UNL1        0.0001
     25 C         143.2690  140.3763  162.3704 C.ar    1  UNL1        0.0013
     26 C         143.6446  140.2885  160.9208 C.ar    1  UNL1        0.0154
     27 C         142.5246  141.7884  164.4202 C.ar    1  UNL1        0.0001
     28 C         143.5649  142.1309  165.4452 C.ar    1  UNL1        0.0013
     29 C         143.1893  142.2187  166.8947 C.ar    1  UNL1        0.0145
     30 C         141.7734  141.9640  167.3194 C.ar    1  UNL1        0.0480
     31 C         140.7331  141.6215  166.2945 C.ar    1  UNL1        0.0145
     32 C         141.1087  141.5336  164.8449 C.ar    1  UNL1        0.0013
     33 N         141.3978  142.0518  168.7690 N.pl3   1  UNL1       -0.3028
     34 C         140.2783  142.9522  169.2005 C.3     1  UNL1        0.1231
     35 C         139.9028  143.0400  170.6500 C.3     1  UNL1        0.1636
     36 O         140.6467  142.2274  171.6680 O.3     1  UNL1       -0.3501
     37 C         141.7661  141.3271  171.2365 C.3     1  UNL1        0.1636
     38 C         142.1417  141.2393  169.7870 C.3     1  UNL1        0.1231
     39 C         142.9165  138.9748  152.3276 C.3     1  UNL1        0.1183
     40 C         140.1567  140.0944  151.9668 C.3     1  UNL1        0.0323
     41 C         140.3579  138.6109  152.0600 C.ar    1  UNL1       -0.0069
     42 C         139.1793  137.6872  151.9729 C.ar    1  UNL1       -0.0015
     43 C         139.3806  136.2037  152.0661 C.ar    1  UNL1        0.0203
     44 C         140.7604  135.6439  152.2466 C.ar    1  UNL1        0.0985
     45 N         141.9391  136.5676  152.3337 N.ar    1  UNL1       -0.2471
     46 C         141.7379  138.0511  152.2405 C.ar    1  UNL1        0.0712
@<TRIPOS>BOND
     1    40    41    1
     2    41    42   ar
     3    42    43   ar
     4    43    44   ar
     5    44    45   ar
     6    45    46   ar
     7    46    39    1
     8    39     1    1
     9     1     2    1
    10     2     3    1
    11     3     4    1
    12     4     5    1
    13     5     6    1
    14     4     7    1
    15     7     8    2
    16     7     9   am
    17     9    21    1
    18    21    22   ar
    19    22    23   ar
    20    23    24   ar
    21    24    27    1
    22    27    28   ar
    23    28    29   ar
    24    29    30   ar
    25    30    33    1
    26    33    34    1
    27    34    35    1
    28    35    36    1
    29    36    37    1
    30    37    38    1
    31    30    31   ar
    32    31    32   ar
    33    24    25   ar
    34    25    26   ar
    35     9    10   am
    36    10    11    2
    37    10    12   am
    38    12    13    1
    39    13    14   ar
    40    14    15   ar
    41    15    16    1
    42    15    17   ar
    43    17    18   ar
    44    18    19   ar
    45    46    41   ar
    46     6     1    1
    47    26    21   ar
    48    19    13   ar
    49    12     4    1
    50    32    27   ar
    51    38    33    1
    52    16    20    1
