@<TRIPOS>MOLECULE
*****
 9 8 0 0 0
SMALL
GASTEIGER

@<TRIPOS>ATOM
      1 C         154.6872  134.0171  163.3835 C.3     1  UNL1        0.0331
      2 C         154.4818  134.3465  164.8324 C.3     1  UNL1        0.1273
      3 C         154.2764  134.6760  166.2813 C.3     1  UNL1        0.0331
      4 O         154.4774  132.8837  165.1643 O.3     1  UNL1       -0.3831
      5 H         154.9606  132.7387  165.9927 H       1  UNL1        0.2104
      6 C         154.4863  135.8093  164.5005 C.3     1  UNL1        0.2199
      7 CL        154.4907  137.2721  164.1685 Cl      1  UNL1       -0.0802
      8 CL        154.9087  136.1266  165.9044 Cl      1  UNL1       -0.0802
      9 CL        154.0639  135.4920  163.0966 Cl      1  UNL1       -0.0802
@<TRIPOS>BOND
     1     1     2    1
     2     2     3    1
     3     2     4    1
     4     2     6    1
     5     6     7    1
     6     6     8    1
     7     6     9    1
     8     4     5    1
@<TRIPOS>MOLECULE
*****
 9 8 0 0 0
SMALL
GASTEIGER

@<TRIPOS>ATOM
      1 C         154.2784  134.6694  166.2773 C.3     1  UNL1        0.0331
      2 C         154.4824  134.3431  164.8276 C.3     1  UNL1        0.1273
      3 C         154.6864  134.0169  163.3777 C.3     1  UNL1        0.0331
      4 O         154.4768  132.8796  165.1562 O.3     1  UNL1       -0.3831
      5 H         153.9907  132.3960  164.4701 H       1  UNL1        0.2104
      6 C         154.4879  135.8067  164.4989 C.3     1  UNL1        0.2199
      7 CL        154.4934  137.2702  164.1703 Cl      1  UNL1       -0.0802
      8 CL        154.8931  136.1217  165.9085 Cl      1  UNL1       -0.0802
      9 CL        154.0827  135.4917  163.0895 Cl      1  UNL1       -0.0802
@<TRIPOS>BOND
     1     1     2    1
     2     2     3    1
     3     2     4    1
     4     2     6    1
     5     6     7    1
     6     6     8    1
     7     6     9    1
     8     4     5    1
@<TRIPOS>MOLECULE
*****
 9 8 0 0 0
SMALL
GASTEIGER

@<TRIPOS>ATOM
      1 C         155.0053  133.0256  163.8601 C.3     1  UNL1        0.0331
      2 C         154.6097  134.4415  163.5622 C.3     1  UNL1        0.1273
      3 C         154.2141  135.8574  163.2643 C.3     1  UNL1        0.0331
      4 O         154.7701  134.1774  162.0944 O.3     1  UNL1       -0.3831
      5 H         154.0579  134.6197  161.6066 H       1  UNL1        0.2104
      6 C         154.4493  134.7055  165.0300 C.3     1  UNL1        0.2199
      7 CL        154.2889  134.9695  166.4979 Cl      1  UNL1       -0.0802
      8 CL        154.5503  136.1804  164.7758 Cl      1  UNL1       -0.0802
      9 CL        154.3484  133.2307  165.2843 Cl      1  UNL1       -0.0802
@<TRIPOS>BOND
     1     1     2    1
     2     2     3    1
     3     2     4    1
     4     2     6    1
     5     6     7    1
     6     6     8    1
     7     6     9    1
     8     4     5    1
@<TRIPOS>MOLECULE
*****
 9 8 0 0 0
SMALL
GASTEIGER

@<TRIPOS>ATOM
      1 C         154.9985  132.9881  163.8968 C.3     1  UNL1        0.0331
      2 C         154.6148  134.4051  163.5887 C.3     1  UNL1        0.1273
      3 C         154.2311  135.8221  163.2807 C.3     1  UNL1        0.0331
      4 O         154.7755  134.1299  162.1230 O.3     1  UNL1       -0.3831
      5 H         154.0676  134.5745  161.6310 H       1  UNL1        0.2104
      6 C         154.4541  134.6803  165.0545 C.3     1  UNL1        0.2199
      7 CL        154.2934  134.9555  166.5203 Cl      1  UNL1       -0.0802
      8 CL        154.3497  133.2075  165.3196 Cl      1  UNL1       -0.0802
      9 CL        154.5585  136.1529  164.7894 Cl      1  UNL1       -0.0802
@<TRIPOS>BOND
     1     1     2    1
     2     2     3    1
     3     2     4    1
     4     2     6    1
     5     6     7    1
     6     6     8    1
     7     6     9    1
     8     4     5    1
@<TRIPOS>MOLECULE
*****
 9 8 0 0 0
SMALL
GASTEIGER

@<TRIPOS>ATOM
      1 C         146.5003  136.8484  173.3767 C.3     1  UNL1        0.0331
      2 C         145.5748  136.4536  172.2643 C.3     1  UNL1        0.1273
      3 C         144.6493  136.0588  171.1518 C.3     1  UNL1        0.0331
      4 O         145.4531  137.8916  171.8553 O.3     1  UNL1       -0.3831
      5 H         145.4521  137.9535  170.8873 H       1  UNL1        0.2104
      6 C         145.6966  135.0156  172.6733 C.3     1  UNL1        0.2199
      7 CL        145.8184  133.5776  173.0823 Cl      1  UNL1       -0.0802
      8 CL        144.7181  134.6287  171.6042 Cl      1  UNL1       -0.0802
      9 CL        146.6751  135.4025  173.7423 Cl      1  UNL1       -0.0802
@<TRIPOS>BOND
     1     1     2    1
     2     2     3    1
     3     2     4    1
     4     2     6    1
     5     6     7    1
     6     6     8    1
     7     6     9    1
     8     4     5    1
@<TRIPOS>MOLECULE
*****
 9 8 0 0 0
SMALL
GASTEIGER

@<TRIPOS>ATOM
      1 C         140.2596  143.3331  170.0755 C.3     1  UNL1        0.0331
      2 C         140.3132  141.8761  170.4280 C.3     1  UNL1        0.1273
      3 C         140.3668  140.4191  170.7805 C.3     1  UNL1        0.0331
      4 O         140.4801  142.2325  171.8754 O.3     1  UNL1       -0.3831
      5 H         139.9593  141.6224  172.4208 H       1  UNL1        0.2104
      6 C         140.1463  141.5198  168.9806 C.3     1  UNL1        0.2199
      7 CL        139.9793  141.1633  167.5331 Cl      1  UNL1       -0.0802
      8 CL        140.9354  142.7344  168.5905 Cl      1  UNL1       -0.0802
      9 CL        139.3572  140.3052  169.3706 Cl      1  UNL1       -0.0802
@<TRIPOS>BOND
     1     1     2    1
     2     2     3    1
     3     2     4    1
     4     2     6    1
     5     6     7    1
     6     6     8    1
     7     6     9    1
     8     4     5    1
@<TRIPOS>MOLECULE
*****
 9 8 0 0 0
SMALL
GASTEIGER

@<TRIPOS>ATOM
      1 C         143.2339  142.4835  169.9534 C.3     1  UNL1        0.0331
      2 C         141.7963  142.4516  170.3801 C.3     1  UNL1        0.1273
      3 C         140.3585  142.4197  170.8067 C.3     1  UNL1        0.0331
      4 O         142.2241  142.3433  171.8137 O.3     1  UNL1       -0.3831
      5 H         141.6434  142.8893  172.3665 H       1  UNL1        0.2104
      6 C         141.3684  142.5598  168.9465 C.3     1  UNL1        0.2199
      7 CL        140.9406  142.6680  167.5129 Cl      1  UNL1       -0.0802
      8 CL        140.3215  143.5616  169.3346 Cl      1  UNL1       -0.0802
      9 CL        142.4153  141.5581  168.5585 Cl      1  UNL1       -0.0802
@<TRIPOS>BOND
     1     1     2    1
     2     2     3    1
     3     2     4    1
     4     2     6    1
     5     6     7    1
     6     6     8    1
     7     6     9    1
     8     4     5    1
@<TRIPOS>MOLECULE
*****
 9 8 0 0 0
SMALL
GASTEIGER

@<TRIPOS>ATOM
      1 C         140.3523  142.3659  170.7599 C.3     1  UNL1        0.0331
      2 C         141.8008  142.4469  170.3790 C.3     1  UNL1        0.1273
      3 C         143.2494  142.5279  169.9980 C.3     1  UNL1        0.0331
      4 O         142.1864  142.3543  171.8256 O.3     1  UNL1       -0.3831
      5 H         142.9690  141.7883  171.9160 H       1  UNL1        0.2104
      6 C         141.4152  142.5395  168.9324 C.3     1  UNL1        0.2199
      7 CL        141.0295  142.6321  167.4857 Cl      1  UNL1       -0.0802
      8 CL        142.4805  141.5423  168.5845 Cl      1  UNL1       -0.0802
      9 CL        140.3500  143.5366  169.2802 Cl      1  UNL1       -0.0802
@<TRIPOS>BOND
     1     1     2    1
     2     2     3    1
     3     2     4    1
     4     2     6    1
     5     6     7    1
     6     6     8    1
     7     6     9    1
     8     4     5    1
@<TRIPOS>MOLECULE
*****
 9 8 0 0 0
SMALL
GASTEIGER

@<TRIPOS>ATOM
      1 C         141.4696  140.7874  170.9742 C.3     1  UNL1        0.0331
      2 C         140.0836  140.5787  170.4401 C.3     1  UNL1        0.1273
      3 C         138.6975  140.3700  169.9060 C.3     1  UNL1        0.0331
      4 O         139.8989  139.4186  171.3729 O.3     1  UNL1       -0.3831
      5 H         138.9982  139.4332  171.7326 H       1  UNL1        0.2104
      6 C         140.2683  141.7388  169.5074 C.3     1  UNL1        0.2199
      7 CL        140.4530  142.8989  168.5746 Cl      1  UNL1       -0.0802
      8 CL        139.7308  142.6673  170.5558 Cl      1  UNL1       -0.0802
      9 CL        140.8058  140.8103  168.4591 Cl      1  UNL1       -0.0802
@<TRIPOS>BOND
     1     1     2    1
     2     2     3    1
     3     2     4    1
     4     2     6    1
     5     6     7    1
     6     6     8    1
     7     6     9    1
     8     4     5    1
