@<TRIPOS>MOLECULE
*****
 39 43 0 0 0
SMALL
GASTEIGER

@<TRIPOS>ATOM
      1 C         137.8785  140.0795  162.1177 C.3     1  UNL1        0.0570
      2 C         137.7384  140.3352  163.5891 C.3     1  UNL1        0.0331
      3 C         137.7207  141.7427  164.1074 C.3     1  UNL1        0.0735
      4 N         137.8431  142.8945  163.1543 N.3     1  UNL1       -0.2711
      5 C         137.9831  142.6388  161.6829 C.3     1  UNL1        0.0735
      6 C         138.0008  141.2313  161.1646 C.3     1  UNL1        0.0331
      7 N         137.8962  138.6720  161.5995 N.3     1  UNL1       -0.2934
      8 H         137.4789  138.0866  162.3230 H       1  UNL1        0.1236
      9 C         139.1970  138.0292  161.2190 C.3     1  UNL1        0.1152
     10 O         145.9190  141.7019  162.6599 O.2     1  UNL1       -0.2707
     11 C         144.8922  140.6759  163.0382 C.2     1  UNL1        0.2718
     12 C         145.0794  139.8481  164.2750 C.3     1  UNL1        0.2898
     13 O         144.0527  138.8220  164.6532 O.3     1  UNL1       -0.4628
     14 C         142.8388  138.6238  163.7947 C.ar    1  UNL1        0.1708
     15 C         141.8120  137.5978  164.1729 C.ar    1  UNL1        0.0411
     16 C         140.5981  137.3996  163.3144 C.ar    1  UNL1        0.0193
     17 C         140.4109  138.2274  162.0776 C.ar    1  UNL1        0.0765
     18 N         141.4377  139.2534  161.6993 N.ar    1  UNL1       -0.2304
     19 C         142.6516  139.4516  162.5579 C.ar    1  UNL1        0.1682
     20 N         143.6784  140.4776  162.1797 N.am    1  UNL1       -0.2639
     21 H         143.5555  141.0210  161.3679 H       1  UNL1        0.1565
     22 C         137.8254  144.3020  163.6726 C.3     1  UNL1        0.0942
     23 C         138.9093  144.7752  164.5952 C.3     1  UNL1        0.1157
     24 N         140.3396  144.4192  164.3167 N.am    1  UNL1       -0.2515
     25 C         141.0256  144.9668  163.1003 C.2     1  UNL1        0.2740
     26 O         140.2812  145.8703  162.1624 O.2     1  UNL1       -0.2705
     27 C         142.4559  144.6109  162.8218 C.3     1  UNL1        0.2900
     28 O         143.2002  143.7074  163.7598 O.3     1  UNL1       -0.4643
     29 C         142.5143  143.1598  164.9761 C.ar    1  UNL1        0.1530
     30 C         143.2585  142.2563  165.9140 C.ar    1  UNL1        0.0413
     31 C         142.5726  141.7087  167.1304 C.ar    1  UNL1        0.0404
     32 C         141.1423  142.0646  167.4089 C.ar    1  UNL1        0.1483
     33 C         140.3979  142.9681  166.4710 C.ar    1  UNL1        0.0551
     34 C         141.0839  143.5157  165.2546 C.ar    1  UNL1        0.0912
     35 O         140.4563  141.5170  168.6253 O.3     1  UNL1       -0.4044
     36 C         140.0195  142.4437  169.7210 C.3     1  UNL1        0.5753
     37 F         139.5827  143.3703  170.8166 F       1  UNL1       -0.1328
     38 F         141.1760  143.3490  169.4163 F       1  UNL1       -0.1328
     39 F         138.8630  141.5384  170.0256 F       1  UNL1       -0.1328
@<TRIPOS>BOND
     1    10    11    2
     2    11    12    1
     3    12    13    1
     4    13    14    1
     5    14    15   ar
     6    15    16   ar
     7    16    17   ar
     8    17     9    1
     9     9     7    1
    10     7     1    1
    11     1     2    1
    12     2     3    1
    13     3     4    1
    14     4    22    1
    15    22    23    1
    16    23    24    1
    17    24    25   am
    18    25    26    2
    19    25    27    1
    20    27    28    1
    21    28    29    1
    22    29    30   ar
    23    30    31   ar
    24    31    32   ar
    25    32    35    1
    26    35    36    1
    27    36    37    1
    28    36    38    1
    29    36    39    1
    30    32    33   ar
    31    33    34   ar
    32     4     5    1
    33     5     6    1
    34    17    18   ar
    35    18    19   ar
    36    19    20    1
    37    20    11   am
    38    19    14   ar
    39     6     1    1
    40    34    24    1
    41    34    29   ar
    42     7     8    1
    43    20    21    1
@<TRIPOS>MOLECULE
*****
 39 43 0 0 0
SMALL
GASTEIGER

@<TRIPOS>ATOM
      1 C         144.3912  139.7290  163.3210 C.3     1  UNL1        0.0570
      2 C         144.1777  139.3475  164.7559 C.3     1  UNL1        0.0331
      3 C         143.0030  138.4970  165.1390 C.3     1  UNL1        0.0735
      4 N         142.0418  138.0280  164.0873 N.3     1  UNL1       -0.2711
      5 C         142.2554  138.4096  162.6523 C.3     1  UNL1        0.0735
      6 C         143.4300  139.2601  162.2693 C.3     1  UNL1        0.0331
      7 N         145.5659  140.5795  162.9380 N.3     1  UNL1       -0.2934
      8 H         146.3971  140.1159  163.3048 H       1  UNL1        0.1236
      9 C         145.6343  142.0095  163.3858 C.3     1  UNL1        0.1152
     10 O         140.3140  145.5593  158.9312 O.2     1  UNL1       -0.2707
     11 C         140.8833  145.2610  160.2866 C.2     1  UNL1        0.2718
     12 C         140.2483  145.8476  161.5124 C.3     1  UNL1        0.2898
     13 O         140.8175  145.5492  162.8678 O.3     1  UNL1       -0.4628
     14 C         142.0217  144.6643  162.9973 C.ar    1  UNL1        0.1708
     15 C         142.5909  144.3660  164.3526 C.ar    1  UNL1        0.0411
     16 C         143.7951  143.4810  164.4821 C.ar    1  UNL1        0.0193
     17 C         144.4301  142.8944  163.2563 C.ar    1  UNL1        0.0765
     18 N         143.8609  143.1928  161.9009 N.ar    1  UNL1       -0.2304
     19 C         142.6567  144.0777  161.7714 C.ar    1  UNL1        0.1682
     20 N         142.0874  144.3761  160.4161 N.am    1  UNL1       -0.2639
     21 H         142.5042  143.9911  159.6115 H       1  UNL1        0.1565
     22 C         140.8671  137.1776  164.4703 C.3     1  UNL1        0.0942
     23 C         139.5924  137.8219  164.9283 C.3     1  UNL1        0.1157
     24 N         139.1542  139.1260  164.3305 N.am    1  UNL1       -0.2515
     25 C         138.4275  139.1430  163.0184 C.2     1  UNL1        0.2740
     26 O         138.1390  137.8558  162.3041 O.2     1  UNL1       -0.2705
     27 C         137.9893  140.4470  162.4205 C.3     1  UNL1        0.2900
     28 O         138.2778  141.7342  163.1348 O.3     1  UNL1       -0.4643
     29 C         139.0045  141.7172  164.4469 C.ar    1  UNL1        0.1530
     30 C         139.2930  143.0042  165.1612 C.ar    1  UNL1        0.0413
     31 C         140.0196  142.9872  166.4733 C.ar    1  UNL1        0.0404
     32 C         140.4578  141.6832  167.0712 C.ar    1  UNL1        0.1483
     33 C         140.1694  140.3961  166.3569 C.ar    1  UNL1        0.0551
     34 C         139.4427  140.4131  165.0448 C.ar    1  UNL1        0.0912
     35 O         141.1845  141.6662  168.3833 O.3     1  UNL1       -0.4044
     36 C         142.5861  142.1935  168.4713 C.3     1  UNL1        0.5753
     37 F         143.9876  142.7208  168.5593 F       1  UNL1       -0.1328
     38 F         142.1376  143.2189  169.4700 F       1  UNL1       -0.1328
     39 F         143.0346  141.1681  167.4727 F       1  UNL1       -0.1328
@<TRIPOS>BOND
     1    10    11    2
     2    11    12    1
     3    12    13    1
     4    13    14    1
     5    14    15   ar
     6    15    16   ar
     7    16    17   ar
     8    17     9    1
     9     9     7    1
    10     7     1    1
    11     1     2    1
    12     2     3    1
    13     3     4    1
    14     4    22    1
    15    22    23    1
    16    23    24    1
    17    24    25   am
    18    25    26    2
    19    25    27    1
    20    27    28    1
    21    28    29    1
    22    29    30   ar
    23    30    31   ar
    24    31    32   ar
    25    32    35    1
    26    35    36    1
    27    36    37    1
    28    36    38    1
    29    36    39    1
    30    32    33   ar
    31    33    34   ar
    32     4     5    1
    33     5     6    1
    34    17    18   ar
    35    18    19   ar
    36    19    20    1
    37    20    11   am
    38    19    14   ar
    39     6     1    1
    40    34    24    1
    41    34    29   ar
    42     7     8    1
    43    20    21    1
@<TRIPOS>MOLECULE
*****
 39 43 0 0 0
SMALL
GASTEIGER

@<TRIPOS>ATOM
      1 C         141.5321  144.3751  163.2941 C.3     1  UNL1        0.0570
      2 C         141.2728  143.9815  164.7181 C.3     1  UNL1        0.0331
      3 C         140.0741  143.1464  165.0590 C.3     1  UNL1        0.0735
      4 N         139.1350  142.7051  163.9759 N.3     1  UNL1       -0.2711
      5 C         139.3944  143.0987  162.5518 C.3     1  UNL1        0.0735
      6 C         140.5930  143.9337  162.2110 C.3     1  UNL1        0.0331
      7 N         142.7307  145.2100  162.9532 N.3     1  UNL1       -0.2934
      8 H         142.5063  145.7100  162.0929 H       1  UNL1        0.1236
      9 C         144.0638  144.5564  162.7390 C.3     1  UNL1        0.1152
     10 O         143.0916  137.8553  158.8790 O.2     1  UNL1       -0.2707
     11 C         143.5179  138.5934  160.1133 C.2     1  UNL1        0.2718
     12 C         144.0465  137.8360  161.2951 C.3     1  UNL1        0.2898
     13 O         144.4727  138.5741  162.5294 O.3     1  UNL1       -0.4628
     14 C         144.3705  140.0696  162.5818 C.ar    1  UNL1        0.1708
     15 C         144.7968  140.8078  163.8161 C.ar    1  UNL1        0.0411
     16 C         144.6946  142.3033  163.8685 C.ar    1  UNL1        0.0193
     17 C         144.1660  143.0609  162.6866 C.ar    1  UNL1        0.0765
     18 N         143.7397  142.3227  161.4523 N.ar    1  UNL1       -0.2304
     19 C         143.8420  140.8271  161.4000 C.ar    1  UNL1        0.1682
     20 N         143.4157  140.0890  160.1657 N.am    1  UNL1       -0.2639
     21 H         143.0688  140.5862  159.3900 H       1  UNL1        0.1565
     22 C         137.9364  141.8701  164.3167 C.3     1  UNL1        0.0942
     23 C         138.1165  140.5256  164.9568 C.3     1  UNL1        0.1157
     24 N         139.2106  139.6125  164.4884 N.am    1  UNL1       -0.2515
     25 C         139.0750  138.8881  163.1819 C.2     1  UNL1        0.2740
     26 O         137.8453  139.0769  162.3438 O.2     1  UNL1       -0.2705
     27 C         140.1690  137.9750  162.7135 C.3     1  UNL1        0.2900
     28 O         141.3987  137.7862  163.5517 O.3     1  UNL1       -0.4643
     29 C         141.5343  138.5106  164.8581 C.ar    1  UNL1        0.1530
     30 C         142.7638  138.3219  165.6963 C.ar    1  UNL1        0.0413
     31 C         142.8994  139.0462  167.0027 C.ar    1  UNL1        0.0404
     32 C         141.8054  139.9593  167.4711 C.ar    1  UNL1        0.1483
     33 C         140.5758  140.1481  166.6330 C.ar    1  UNL1        0.0551
     34 C         140.4402  139.4237  165.3265 C.ar    1  UNL1        0.0912
     35 O         141.9410  140.6837  168.7776 O.3     1  UNL1       -0.4044
     36 C         143.0950  141.6153  169.0024 C.3     1  UNL1        0.5753
     37 F         144.2490  142.5469  169.2272 F       1  UNL1       -0.1328
     38 F         142.6366  142.4608  167.8514 F       1  UNL1       -0.1328
     39 F         143.5535  140.7697  170.1534 F       1  UNL1       -0.1328
@<TRIPOS>BOND
     1    10    11    2
     2    11    12    1
     3    12    13    1
     4    13    14    1
     5    14    15   ar
     6    15    16   ar
     7    16    17   ar
     8    17     9    1
     9     9     7    1
    10     7     1    1
    11     1     2    1
    12     2     3    1
    13     3     4    1
    14     4    22    1
    15    22    23    1
    16    23    24    1
    17    24    25   am
    18    25    26    2
    19    25    27    1
    20    27    28    1
    21    28    29    1
    22    29    30   ar
    23    30    31   ar
    24    31    32   ar
    25    32    35    1
    26    35    36    1
    27    36    37    1
    28    36    38    1
    29    36    39    1
    30    32    33   ar
    31    33    34   ar
    32     4     5    1
    33     5     6    1
    34    17    18   ar
    35    18    19   ar
    36    19    20    1
    37    20    11   am
    38    19    14   ar
    39     6     1    1
    40    34    24    1
    41    34    29   ar
    42     7     8    1
    43    20    21    1
@<TRIPOS>MOLECULE
*****
 39 43 0 0 0
SMALL
GASTEIGER

@<TRIPOS>ATOM
      1 C         142.1695  144.6030  163.2512 C.3     1  UNL1        0.0570
      2 C         142.9986  144.0336  162.1383 C.3     1  UNL1        0.0331
      3 C         143.7571  142.7562  162.3461 C.3     1  UNL1        0.0735
      4 N         143.6866  142.0484  163.6667 N.3     1  UNL1       -0.2711
      5 C         142.8575  142.6178  164.7795 C.3     1  UNL1        0.0735
      6 C         142.0990  143.8951  164.5717 C.3     1  UNL1        0.0331
      7 N         141.4111  145.8803  163.0434 N.3     1  UNL1       -0.2934
      8 H         141.2375  146.2734  163.9684 H       1  UNL1        0.1236
      9 C         140.0936  145.8621  162.3264 C.3     1  UNL1        0.1152
     10 O         138.3674  139.6210  157.9883 O.2     1  UNL1       -0.2707
     11 C         138.2045  140.4081  159.2548 C.2     1  UNL1        0.2718
     12 C         137.3031  139.9019  160.3417 C.3     1  UNL1        0.2898
     13 O         137.1402  140.6890  161.6081 O.3     1  UNL1       -0.4628
     14 C         137.8785  141.9822  161.7877 C.ar    1  UNL1        0.1708
     15 C         137.7155  142.7693  163.0542 C.ar    1  UNL1        0.0411
     16 C         138.4538  144.0626  163.2338 C.ar    1  UNL1        0.0193
     17 C         139.3552  144.5688  162.1468 C.ar    1  UNL1        0.0765
     18 N         139.5182  143.7817  160.8804 N.ar    1  UNL1       -0.2304
     19 C         138.7798  142.4884  160.7008 C.ar    1  UNL1        0.1682
     20 N         138.9428  141.7013  159.4344 N.am    1  UNL1       -0.2639
     21 H         139.5344  142.0336  158.7210 H       1  UNL1        0.1565
     22 C         144.4451  140.7711  163.8744 C.3     1  UNL1        0.0942
     23 C         143.8624  139.6830  164.7268 C.3     1  UNL1        0.1157
     24 N         142.5868  139.0096  164.3151 N.am    1  UNL1       -0.2515
     25 C         142.5372  138.2072  163.0488 C.2     1  UNL1        0.2740
     26 O         143.7632  138.0782  162.1941 O.2     1  UNL1       -0.2705
     27 C         141.2617  137.5338  162.6371 C.3     1  UNL1        0.2900
     28 O         140.0357  137.6627  163.4917 O.3     1  UNL1       -0.4643
     29 C         140.0853  138.4652  164.7581 C.ar    1  UNL1        0.1530
     30 C         138.8594  138.5941  165.6128 C.ar    1  UNL1        0.0413
     31 C         138.9090  139.3966  166.8791 C.ar    1  UNL1        0.0404
     32 C         140.1845  140.0700  167.2908 C.ar    1  UNL1        0.1483
     33 C         141.4105  139.9410  166.4362 C.ar    1  UNL1        0.0551
     34 C         141.3609  139.1386  165.1698 C.ar    1  UNL1        0.0912
     35 O         140.2341  140.8724  168.5572 O.3     1  UNL1       -0.4044
     36 C         139.9725  140.2083  169.8766 C.3     1  UNL1        0.5753
     37 F         139.7110  139.5443  171.1959 F       1  UNL1       -0.1328
     38 F         141.2629  139.4536  169.7525 F       1  UNL1       -0.1328
     39 F         138.6822  140.9630  170.0007 F       1  UNL1       -0.1328
@<TRIPOS>BOND
     1    10    11    2
     2    11    12    1
     3    12    13    1
     4    13    14    1
     5    14    15   ar
     6    15    16   ar
     7    16    17   ar
     8    17     9    1
     9     9     7    1
    10     7     1    1
    11     1     2    1
    12     2     3    1
    13     3     4    1
    14     4    22    1
    15    22    23    1
    16    23    24    1
    17    24    25   am
    18    25    26    2
    19    25    27    1
    20    27    28    1
    21    28    29    1
    22    29    30   ar
    23    30    31   ar
    24    31    32   ar
    25    32    35    1
    26    35    36    1
    27    36    37    1
    28    36    38    1
    29    36    39    1
    30    32    33   ar
    31    33    34   ar
    32     4     5    1
    33     5     6    1
    34    17    18   ar
    35    18    19   ar
    36    19    20    1
    37    20    11   am
    38    19    14   ar
    39     6     1    1
    40    34    24    1
    41    34    29   ar
    42     7     8    1
    43    20    21    1
@<TRIPOS>MOLECULE
*****
 39 43 0 0 0
SMALL
GASTEIGER

@<TRIPOS>ATOM
      1 C         140.2766  144.2747  164.7938 C.3     1  UNL1        0.0570
      2 C         141.4504  144.6631  163.9446 C.3     1  UNL1        0.0331
      3 C         142.7387  143.9024  164.0528 C.3     1  UNL1        0.0735
      4 N         142.8531  142.7533  165.0101 N.3     1  UNL1       -0.2711
      5 C         141.6791  142.3649  165.8592 C.3     1  UNL1        0.0735
      6 C         140.3909  143.1256  165.7511 C.3     1  UNL1        0.0331
      7 N         138.9883  145.0355  164.6856 N.3     1  UNL1       -0.2934
      8 H         138.8057  145.4375  165.6051 H       1  UNL1        0.1236
      9 C         137.7335  144.3296  164.2646 C.3     1  UNL1        0.1152
     10 O         138.7922  142.1074  156.8692 O.2     1  UNL1       -0.2707
     11 C         138.4999  141.7637  158.2998 C.2     1  UNL1        0.2718
     12 C         138.2682  140.3356  158.6957 C.3     1  UNL1        0.2898
     13 O         137.9759  139.9919  160.1263 O.3     1  UNL1       -0.4628
     14 C         137.9153  141.0763  161.1608 C.ar    1  UNL1        0.1708
     15 C         137.6230  140.7326  162.5914 C.ar    1  UNL1        0.0411
     16 C         137.5624  141.8170  163.6259 C.ar    1  UNL1        0.0193
     17 C         137.7941  143.2452  163.2300 C.ar    1  UNL1        0.0765
     18 N         138.0864  143.5889  161.7995 N.ar    1  UNL1       -0.2304
     19 C         138.1470  142.5044  160.7649 C.ar    1  UNL1        0.1682
     20 N         138.4393  142.8481  159.3343 N.am    1  UNL1       -0.2639
     21 H         138.5914  143.7854  159.0745 H       1  UNL1        0.1565
     22 C         144.1413  141.9925  165.1182 C.3     1  UNL1        0.0942
     23 C         144.2547  140.6211  164.5215 C.3     1  UNL1        0.1157
     24 N         143.7279  140.3575  163.1419 N.am    1  UNL1       -0.2515
     25 C         144.4332  140.9291  161.9479 C.2     1  UNL1        0.2740
     26 O         145.6654  141.7643  162.1333 O.2     1  UNL1       -0.2705
     27 C         143.9065  140.6655  160.5684 C.3     1  UNL1        0.2900
     28 O         142.6743  139.8303  160.3829 O.3     1  UNL1       -0.4643
     29 C         141.9690  139.2588  161.5770 C.ar    1  UNL1        0.1530
     30 C         140.7369  138.4236  161.3916 C.ar    1  UNL1        0.0413
     31 C         140.0316  137.8520  162.5856 C.ar    1  UNL1        0.0404
     32 C         140.5583  138.1156  163.9651 C.ar    1  UNL1        0.1483
     33 C         141.7905  138.9508  164.1506 C.ar    1  UNL1        0.0551
     34 C         142.4958  139.5224  162.9565 C.ar    1  UNL1        0.0912
     35 O         139.8530  137.5440  165.1592 O.3     1  UNL1       -0.4044
     36 C         138.6739  138.2606  165.7479 C.3     1  UNL1        0.5753
     37 F         137.4950  138.9771  166.3365 F       1  UNL1       -0.1328
     38 F         139.3136  139.5783  165.4249 F       1  UNL1       -0.1328
     39 F         138.0343  136.9428  166.0709 F       1  UNL1       -0.1328
@<TRIPOS>BOND
     1    10    11    2
     2    11    12    1
     3    12    13    1
     4    13    14    1
     5    14    15   ar
     6    15    16   ar
     7    16    17   ar
     8    17     9    1
     9     9     7    1
    10     7     1    1
    11     1     2    1
    12     2     3    1
    13     3     4    1
    14     4    22    1
    15    22    23    1
    16    23    24    1
    17    24    25   am
    18    25    26    2
    19    25    27    1
    20    27    28    1
    21    28    29    1
    22    29    30   ar
    23    30    31   ar
    24    31    32   ar
    25    32    35    1
    26    35    36    1
    27    36    37    1
    28    36    38    1
    29    36    39    1
    30    32    33   ar
    31    33    34   ar
    32     4     5    1
    33     5     6    1
    34    17    18   ar
    35    18    19   ar
    36    19    20    1
    37    20    11   am
    38    19    14   ar
    39     6     1    1
    40    34    24    1
    41    34    29   ar
    42     7     8    1
    43    20    21    1
@<TRIPOS>MOLECULE
*****
 39 43 0 0 0
SMALL
GASTEIGER

@<TRIPOS>ATOM
      1 C         140.2632  137.8700  161.8954 C.3     1  UNL1        0.0570
      2 C         140.7221  137.7344  163.3170 C.3     1  UNL1        0.0331
      3 C         142.1159  138.1385  163.6970 C.3     1  UNL1        0.0735
      4 N         143.0506  138.6781  162.6554 N.3     1  UNL1       -0.2711
      5 C         142.5916  138.8137  161.2337 C.3     1  UNL1        0.0735
      6 C         141.1980  138.4096  160.8538 C.3     1  UNL1        0.0331
      7 N         138.8696  137.4659  161.5155 N.3     1  UNL1       -0.2934
      8 H         138.8749  137.3011  160.5089 H       1  UNL1        0.1236
      9 C         137.7187  138.3857  161.7977 C.3     1  UNL1        0.1152
     10 O         138.2970  145.1151  165.6875 O.2     1  UNL1       -0.2707
     11 C         138.3143  144.3572  164.3932 C.2     1  UNL1        0.2718
     12 C         138.5416  145.0845  163.1012 C.3     1  UNL1        0.2898
     13 O         138.5589  144.3266  161.8069 O.3     1  UNL1       -0.4628
     14 C         138.3488  142.8414  161.8045 C.ar    1  UNL1        0.1708
     15 C         138.3661  142.0835  160.5102 C.ar    1  UNL1        0.0411
     16 C         138.1561  140.5983  160.5079 C.ar    1  UNL1        0.0193
     17 C         137.9287  139.8709  161.8000 C.ar    1  UNL1        0.0765
     18 N         137.9115  140.6288  163.0943 N.ar    1  UNL1       -0.2304
     19 C         138.1215  142.1141  163.0966 C.ar    1  UNL1        0.1682
     20 N         138.1042  142.8720  164.3909 N.am    1  UNL1       -0.2639
     21 H         137.9550  142.3947  165.2389 H       1  UNL1        0.1565
     22 C         144.4443  139.0822  163.0353 C.3     1  UNL1        0.0942
     23 C         144.6907  140.4181  163.6713 C.3     1  UNL1        0.1157
     24 N         143.5589  141.3875  163.8425 N.am    1  UNL1       -0.2515
     25 C         143.1541  142.2764  162.7040 C.2     1  UNL1        0.2740
     26 O         143.8812  142.1958  161.3944 O.2     1  UNL1       -0.2705
     27 C         142.0224  143.2458  162.8751 C.3     1  UNL1        0.2900
     28 O         141.2954  143.3264  164.1847 O.3     1  UNL1       -0.4643
     29 C         141.7001  142.4376  165.3232 C.ar    1  UNL1        0.1530
     30 C         140.9731  142.5182  166.6327 C.ar    1  UNL1        0.0413
     31 C         141.3779  141.6293  167.7712 C.ar    1  UNL1        0.0404
     32 C         142.5097  140.6599  167.6001 C.ar    1  UNL1        0.1483
     33 C         143.2367  140.5793  166.2905 C.ar    1  UNL1        0.0551
     34 C         142.8319  141.4681  165.1520 C.ar    1  UNL1        0.0912
     35 O         142.9144  139.7710  168.7386 O.3     1  UNL1       -0.4044
     36 C         142.5875  140.1631  170.1491 C.3     1  UNL1        0.5753
     37 F         142.2606  140.5552  171.5595 F       1  UNL1       -0.1328
     38 F         143.7416  141.1213  170.1502 F       1  UNL1       -0.1328
     39 F         141.4334  139.2050  170.1480 F       1  UNL1       -0.1328
@<TRIPOS>BOND
     1    10    11    2
     2    11    12    1
     3    12    13    1
     4    13    14    1
     5    14    15   ar
     6    15    16   ar
     7    16    17   ar
     8    17     9    1
     9     9     7    1
    10     7     1    1
    11     1     2    1
    12     2     3    1
    13     3     4    1
    14     4    22    1
    15    22    23    1
    16    23    24    1
    17    24    25   am
    18    25    26    2
    19    25    27    1
    20    27    28    1
    21    28    29    1
    22    29    30   ar
    23    30    31   ar
    24    31    32   ar
    25    32    35    1
    26    35    36    1
    27    36    37    1
    28    36    38    1
    29    36    39    1
    30    32    33   ar
    31    33    34   ar
    32     4     5    1
    33     5     6    1
    34    17    18   ar
    35    18    19   ar
    36    19    20    1
    37    20    11   am
    38    19    14   ar
    39     6     1    1
    40    34    24    1
    41    34    29   ar
    42     7     8    1
    43    20    21    1
@<TRIPOS>MOLECULE
*****
 39 43 0 0 0
SMALL
GASTEIGER

@<TRIPOS>ATOM
      1 C         137.6671  142.2039  163.0318 C.3     1  UNL1        0.0570
      2 C         137.9057  141.9707  164.4941 C.3     1  UNL1        0.0331
      3 C         138.2654  140.6000  164.9861 C.3     1  UNL1        0.0735
      4 N         138.3863  139.4627  164.0157 N.3     1  UNL1       -0.2711
      5 C         138.1476  139.6960  162.5532 C.3     1  UNL1        0.0735
      6 C         137.7880  141.0666  162.0613 C.3     1  UNL1        0.0331
      7 N         137.3075  143.5746  162.5398 N.3     1  UNL1       -0.2934
      8 H         137.1010  143.4856  161.5449 H       1  UNL1        0.1236
      9 C         138.2865  144.7025  162.6797 C.3     1  UNL1        0.1152
     10 O         144.4893  141.8865  158.8923 O.2     1  UNL1       -0.2707
     11 C         143.8953  142.5505  160.0990 C.2     1  UNL1        0.2718
     12 C         144.7748  142.9398  161.2500 C.3     1  UNL1        0.2898
     13 O         144.1808  143.6038  162.4567 O.3     1  UNL1       -0.4628
     14 C         142.7072  143.8785  162.5125 C.ar    1  UNL1        0.1708
     15 C         142.1132  144.5425  163.7192 C.ar    1  UNL1        0.0411
     16 C         140.6396  144.8171  163.7750 C.ar    1  UNL1        0.0193
     17 C         139.7600  144.4278  162.6240 C.ar    1  UNL1        0.0765
     18 N         140.3541  143.7638  161.4172 N.ar    1  UNL1       -0.2304
     19 C         141.8277  143.4891  161.3615 C.ar    1  UNL1        0.1682
     20 N         142.4217  142.8251  160.1548 N.am    1  UNL1       -0.2639
     21 H         141.8445  142.5696  159.3993 H       1  UNL1        0.1565
     22 C         138.7459  138.0920  164.5076 C.3     1  UNL1        0.0942
     23 C         140.1806  137.7419  164.7700 C.3     1  UNL1        0.1157
     24 N         141.2763  138.6076  164.2220 N.am    1  UNL1       -0.2515
     25 C         141.7426  138.4221  162.8084 C.2     1  UNL1        0.2740
     26 O         141.1134  137.3708  161.9429 O.2     1  UNL1       -0.2705
     27 C         142.8382  139.2877  162.2604 C.3     1  UNL1        0.2900
     28 O         143.4674  140.3389  163.1259 O.3     1  UNL1       -0.4643
     29 C         143.0011  140.5245  164.5394 C.ar    1  UNL1        0.1530
     30 C         143.6303  141.5756  165.4049 C.ar    1  UNL1        0.0413
     31 C         143.1639  141.7611  166.8185 C.ar    1  UNL1        0.0404
     32 C         142.0684  140.8955  167.3665 C.ar    1  UNL1        0.1483
     33 C         141.4391  139.8443  166.5010 C.ar    1  UNL1        0.0551
     34 C         141.9055  139.6588  165.0875 C.ar    1  UNL1        0.0912
     35 O         141.6020  141.0811  168.7801 O.3     1  UNL1       -0.4044
     36 C         140.2141  140.6686  169.1722 C.3     1  UNL1        0.5753
     37 F         138.8263  140.2562  169.5642 F       1  UNL1       -0.1328
     38 F         139.6657  141.9135  168.5402 F       1  UNL1       -0.1328
     39 F         140.7626  139.4237  169.8041 F       1  UNL1       -0.1328
@<TRIPOS>BOND
     1    10    11    2
     2    11    12    1
     3    12    13    1
     4    13    14    1
     5    14    15   ar
     6    15    16   ar
     7    16    17   ar
     8    17     9    1
     9     9     7    1
    10     7     1    1
    11     1     2    1
    12     2     3    1
    13     3     4    1
    14     4    22    1
    15    22    23    1
    16    23    24    1
    17    24    25   am
    18    25    26    2
    19    25    27    1
    20    27    28    1
    21    28    29    1
    22    29    30   ar
    23    30    31   ar
    24    31    32   ar
    25    32    35    1
    26    35    36    1
    27    36    37    1
    28    36    38    1
    29    36    39    1
    30    32    33   ar
    31    33    34   ar
    32     4     5    1
    33     5     6    1
    34    17    18   ar
    35    18    19   ar
    36    19    20    1
    37    20    11   am
    38    19    14   ar
    39     6     1    1
    40    34    24    1
    41    34    29   ar
    42     7     8    1
    43    20    21    1
@<TRIPOS>MOLECULE
*****
 39 43 0 0 0
SMALL
GASTEIGER

@<TRIPOS>ATOM
      1 C         140.2063  138.1562  162.0019 C.3     1  UNL1        0.0570
      2 C         141.3178  138.7152  161.1642 C.3     1  UNL1        0.0331
      3 C         142.6744  138.9325  161.7663 C.3     1  UNL1        0.0735
      4 N         142.9194  138.5908  163.2062 N.3     1  UNL1       -0.2711
      5 C         141.8077  138.0317  164.0439 C.3     1  UNL1        0.0735
      6 C         140.4512  137.8144  163.4418 C.3     1  UNL1        0.0331
      7 N         138.8498  137.9389  161.3998 N.3     1  UNL1       -0.2934
      8 H         138.9679  137.9748  160.3873 H       1  UNL1        0.1236
      9 C         137.7217  138.8681  161.7374 C.3     1  UNL1        0.1152
     10 O         141.0331  145.5666  159.5206 O.2     1  UNL1       -0.2707
     11 C         140.2024  144.7893  160.4982 C.2     1  UNL1        0.2718
     12 C         139.6447  145.4674  161.7143 C.3     1  UNL1        0.2898
     13 O         138.8140  144.6901  162.6919 O.3     1  UNL1       -0.4628
     14 C         138.5409  143.2346  162.4533 C.ar    1  UNL1        0.1708
     15 C         137.7102  142.4573  163.4309 C.ar    1  UNL1        0.0411
     16 C         137.4371  141.0018  163.1923 C.ar    1  UNL1        0.0193
     17 C         137.9948  140.3236  161.9760 C.ar    1  UNL1        0.0765
     18 N         138.8255  141.1009  160.9985 N.ar    1  UNL1       -0.2304
     19 C         139.0986  142.5565  161.2371 C.ar    1  UNL1        0.1682
     20 N         139.9293  143.3338  160.2596 N.am    1  UNL1       -0.2639
     21 H         140.2953  142.8887  159.4613 H       1  UNL1        0.1565
     22 C         144.2759  138.8081  163.8083 C.3     1  UNL1        0.0942
     23 C         144.6061  140.1182  164.4597 C.3     1  UNL1        0.1157
     24 N         143.8390  141.3535  164.0913 N.am    1  UNL1       -0.2515
     25 C         144.2605  142.1731  162.9078 C.2     1  UNL1        0.2740
     26 O         145.4493  141.7574  162.0928 O.2     1  UNL1       -0.2705
     27 C         143.4934  143.4083  162.5393 C.3     1  UNL1        0.2900
     28 O         142.3047  143.8239  163.3544 O.3     1  UNL1       -0.4643
     29 C         141.8831  143.0044  164.5378 C.ar    1  UNL1        0.1530
     30 C         140.6945  143.4200  165.3528 C.ar    1  UNL1        0.0413
     31 C         140.2729  142.6004  166.5363 C.ar    1  UNL1        0.0404
     32 C         141.0400  141.3652  166.9048 C.ar    1  UNL1        0.1483
     33 C         142.2287  140.9495  166.0897 C.ar    1  UNL1        0.0551
     34 C         142.6503  141.7691  164.9063 C.ar    1  UNL1        0.0912
     35 O         140.6184  140.5457  168.0882 O.3     1  UNL1       -0.4044
     36 C         139.2740  139.8805  168.0992 C.3     1  UNL1        0.5753
     37 F         137.9296  139.2153  168.1103 F       1  UNL1       -0.1328
     38 F         138.9634  140.5300  169.4151 F       1  UNL1       -0.1328
     39 F         139.5845  139.2309  166.7834 F       1  UNL1       -0.1328
@<TRIPOS>BOND
     1    10    11    2
     2    11    12    1
     3    12    13    1
     4    13    14    1
     5    14    15   ar
     6    15    16   ar
     7    16    17   ar
     8    17     9    1
     9     9     7    1
    10     7     1    1
    11     1     2    1
    12     2     3    1
    13     3     4    1
    14     4    22    1
    15    22    23    1
    16    23    24    1
    17    24    25   am
    18    25    26    2
    19    25    27    1
    20    27    28    1
    21    28    29    1
    22    29    30   ar
    23    30    31   ar
    24    31    32   ar
    25    32    35    1
    26    35    36    1
    27    36    37    1
    28    36    38    1
    29    36    39    1
    30    32    33   ar
    31    33    34   ar
    32     4     5    1
    33     5     6    1
    34    17    18   ar
    35    18    19   ar
    36    19    20    1
    37    20    11   am
    38    19    14   ar
    39     6     1    1
    40    34    24    1
    41    34    29   ar
    42     7     8    1
    43    20    21    1
@<TRIPOS>MOLECULE
*****
 39 43 0 0 0
SMALL
GASTEIGER

@<TRIPOS>ATOM
      1 C         139.5739  137.5701  164.0054 C.3     1  UNL1        0.0570
      2 C         141.0690  137.5075  163.9019 C.3     1  UNL1        0.0331
      3 C         141.7445  137.8210  162.5998 C.3     1  UNL1        0.0735
      4 N         140.9248  138.1970  161.4011 N.3     1  UNL1       -0.2711
      5 C         139.4297  138.2596  161.5046 C.3     1  UNL1        0.0735
      6 C         138.7542  137.9462  162.8067 C.3     1  UNL1        0.0331
      7 N         138.8985  137.2567  165.3075 N.3     1  UNL1       -0.2934
      8 H         138.2219  136.5174  165.1177 H       1  UNL1        0.1236
      9 C         138.1656  138.3341  166.0507 C.3     1  UNL1        0.1152
     10 O         140.4235  142.2743  172.3852 O.2     1  UNL1       -0.2707
     11 C         140.4321  142.0936  170.8961 C.2     1  UNL1        0.2718
     12 C         141.2020  143.0456  170.0295 C.3     1  UNL1        0.2898
     13 O         141.2106  142.8649  168.5405 O.3     1  UNL1       -0.4628
     14 C         140.4494  141.7322  167.9180 C.ar    1  UNL1        0.1708
     15 C         140.4580  141.5515  166.4290 C.ar    1  UNL1        0.0411
     16 C         139.6967  140.4188  165.8065 C.ar    1  UNL1        0.0193
     17 C         138.9268  139.4667  166.6731 C.ar    1  UNL1        0.0765
     18 N         138.9182  139.6475  168.1622 N.ar    1  UNL1       -0.2304
     19 C         139.6795  140.7802  168.7846 C.ar    1  UNL1        0.1682
     20 N         139.6709  140.9609  170.2737 N.am    1  UNL1       -0.2639
     21 H         139.1656  140.3361  170.8424 H       1  UNL1        0.1565
     22 C         141.6003  138.5104  160.0991 C.3     1  UNL1        0.0942
     23 C         142.0850  139.9025  159.8217 C.3     1  UNL1        0.1157
     24 N         141.2291  141.0805  160.1821 N.am    1  UNL1       -0.2515
     25 C         140.0623  141.4527  159.3160 C.2     1  UNL1        0.2740
     26 O         139.7515  140.6469  158.0896 O.2     1  UNL1       -0.2705
     27 C         139.2064  142.6307  159.6764 C.3     1  UNL1        0.2900
     28 O         139.5173  143.4365  160.9028 O.3     1  UNL1       -0.4643
     29 C         140.6841  143.0643  161.7689 C.ar    1  UNL1        0.1530
     30 C         140.9950  143.8700  162.9953 C.ar    1  UNL1        0.0413
     31 C         142.1618  143.4978  163.8613 C.ar    1  UNL1        0.0404
     32 C         143.0177  142.3199  163.5010 C.ar    1  UNL1        0.1483
     33 C         142.7068  141.5141  162.2746 C.ar    1  UNL1        0.0551
     34 C         141.5400  141.8863  161.4085 C.ar    1  UNL1        0.0912
     35 O         144.1845  141.9477  164.3671 O.3     1  UNL1       -0.4044
     36 C         144.7591  140.5638  164.2971 C.3     1  UNL1        0.5753
     37 F         145.3338  139.1801  164.2272 F       1  UNL1       -0.1328
     38 F         145.9072  141.0818  163.4825 F       1  UNL1       -0.1328
     39 F         143.6111  140.0459  165.1118 F       1  UNL1       -0.1328
@<TRIPOS>BOND
     1    10    11    2
     2    11    12    1
     3    12    13    1
     4    13    14    1
     5    14    15   ar
     6    15    16   ar
     7    16    17   ar
     8    17     9    1
     9     9     7    1
    10     7     1    1
    11     1     2    1
    12     2     3    1
    13     3     4    1
    14     4    22    1
    15    22    23    1
    16    23    24    1
    17    24    25   am
    18    25    26    2
    19    25    27    1
    20    27    28    1
    21    28    29    1
    22    29    30   ar
    23    30    31   ar
    24    31    32   ar
    25    32    35    1
    26    35    36    1
    27    36    37    1
    28    36    38    1
    29    36    39    1
    30    32    33   ar
    31    33    34   ar
    32     4     5    1
    33     5     6    1
    34    17    18   ar
    35    18    19   ar
    36    19    20    1
    37    20    11   am
    38    19    14   ar
    39     6     1    1
    40    34    24    1
    41    34    29   ar
    42     7     8    1
    43    20    21    1
