@<TRIPOS>MOLECULE
*****
 24 26 0 0 0
SMALL
GASTEIGER

@<TRIPOS>ATOM
      1 C         142.6623  137.8190  158.1020 C.ar    1  UNL1        0.1637
      2 N         142.6561  137.2339  159.4832 N.ar    1  UNL1       -0.2194
      3 C         141.9437  138.1934  160.3899 C.ar    1  UNL1        0.1431
      4 C         141.5095  139.3714  159.5690 C.ar    1  UNL1        0.0619
      5 S         141.9536  139.1401  158.1551 S.2     1  UNL1       -0.0507
      6 C         141.7070  138.0074  161.8594 C.2     1  UNL1        0.2673
      7 O         140.5076  137.2424  162.3349 O.2     1  UNL1       -0.2682
      8 N         142.6696  138.5865  162.8533 N.am    1  UNL1       -0.2765
      9 C         143.8690  139.3516  162.3777 C.3     1  UNL1        0.0937
     10 C         144.8317  139.9308  163.3716 C.3     1  UNL1        0.0216
     11 C         144.5950  139.7448  164.8411 C.3     1  UNL1        0.0034
     12 C         143.3956  138.9797  165.3167 C.3     1  UNL1        0.0183
     13 C         143.1589  138.7938  166.7862 C.3     1  UNL1        0.0017
     14 C         142.4329  138.4006  164.3227 C.3     1  UNL1        0.0757
     15 C         141.2336  137.6355  164.7983 C.3     1  UNL1        0.0215
     16 N         143.2702  137.1930  156.8820 N.pl3   1  UNL1       -0.2927
     17 H         143.9739  137.6681  156.3837 H       1  UNL1        0.1541
     18 C         141.4136  131.7934  155.0389 C.3     1  UNL1        0.0310
     19 C         141.8778  133.1433  155.4997 C.ar    1  UNL1       -0.0218
     20 C         142.8504  133.2543  156.6361 C.ar    1  UNL1       -0.0030
     21 C         143.3146  134.6042  157.0969 C.ar    1  UNL1        0.0143
     22 C         142.8061  135.8431  156.4212 C.ar    1  UNL1        0.0497
     23 C         141.8334  135.7321  155.2848 C.ar    1  UNL1        0.0143
     24 C         141.3693  134.3822  154.8240 C.ar    1  UNL1       -0.0030
@<TRIPOS>BOND
     1    18    19    1
     2    19    20   ar
     3    20    21   ar
     4    21    22   ar
     5    22    16    1
     6    16     1    1
     7     1     2   ar
     8     2     3   ar
     9     3     6    1
    10     6     7    2
    11     6     8   am
    12     8     9    1
    13     9    10    1
    14    10    11    1
    15    11    12    1
    16    12    13    1
    17    12    14    1
    18    14    15    1
    19     3     4   ar
    20     4     5   ar
    21    22    23   ar
    22    23    24   ar
    23    24    19   ar
    24     5     1   ar
    25    14     8    1
    26    16    17    1
@<TRIPOS>MOLECULE
*****
 24 26 0 0 0
SMALL
GASTEIGER

@<TRIPOS>ATOM
      1 C         142.1217  137.6278  157.5145 C.ar    1  UNL1        0.1637
      2 N         143.1235  137.7353  158.6257 N.ar    1  UNL1       -0.2194
      3 C         142.5265  138.5863  159.7072 C.ar    1  UNL1        0.1431
      4 C         141.1558  139.0047  159.2643 C.ar    1  UNL1        0.0619
      5 S         140.9056  138.4123  157.9092 S.2     1  UNL1       -0.0507
      6 C         143.1847  138.9543  161.0039 C.2     1  UNL1        0.2673
      7 O         144.4211  139.8036  161.0028 O.2     1  UNL1       -0.2682
      8 N         142.6066  138.4730  162.3015 N.am    1  UNL1       -0.2765
      9 C         141.3701  137.6237  162.3026 C.3     1  UNL1        0.0937
     10 C         140.7919  137.1424  163.6003 C.3     1  UNL1        0.0216
     11 C         141.4501  137.5104  164.8969 C.3     1  UNL1        0.0034
     12 C         142.6866  138.3597  164.8959 C.3     1  UNL1        0.0183
     13 C         143.3448  138.7277  166.1926 C.3     1  UNL1        0.0017
     14 C         143.2648  138.8410  163.5982 C.3     1  UNL1        0.0757
     15 C         144.5011  139.6903  163.5972 C.3     1  UNL1        0.0215
     16 N         142.3040  136.8690  156.2335 N.pl3   1  UNL1       -0.2927
     17 H         142.3690  137.3538  155.3791 H       1  UNL1        0.1541
     18 C         142.6368  130.8788  156.3162 C.3     1  UNL1        0.0310
     19 C         142.5536  132.3763  156.2955 C.ar    1  UNL1       -0.0218
     20 C         141.6001  133.0617  155.3622 C.ar    1  UNL1       -0.0030
     21 C         141.5169  134.5592  155.3415 C.ar    1  UNL1        0.0143
     22 C         142.3872  135.3714  156.2542 C.ar    1  UNL1        0.0497
     23 C         143.3407  134.6861  157.1875 C.ar    1  UNL1        0.0143
     24 C         143.4239  133.1885  157.2081 C.ar    1  UNL1       -0.0030
@<TRIPOS>BOND
     1    18    19    1
     2    19    20   ar
     3    20    21   ar
     4    21    22   ar
     5    22    16    1
     6    16     1    1
     7     1     2   ar
     8     2     3   ar
     9     3     6    1
    10     6     7    2
    11     6     8   am
    12     8     9    1
    13     9    10    1
    14    10    11    1
    15    11    12    1
    16    12    13    1
    17    12    14    1
    18    14    15    1
    19     3     4   ar
    20     4     5   ar
    21    22    23   ar
    22    23    24   ar
    23    24    19   ar
    24     5     1   ar
    25    14     8    1
    26    16    17    1
@<TRIPOS>MOLECULE
*****
 24 26 0 0 0
SMALL
GASTEIGER

@<TRIPOS>ATOM
      1 C         138.0927  139.5152  163.3141 C.ar    1  UNL1        0.1637
      2 N         138.0933  140.1984  164.6495 N.ar    1  UNL1       -0.2194
      3 C         138.9212  139.3748  165.5911 C.ar    1  UNL1        0.1431
      4 C         139.4323  138.1827  164.8376 C.ar    1  UNL1        0.0619
      5 S         138.9202  138.2695  163.4304 S.2     1  UNL1       -0.0507
      6 C         139.1907  139.6884  167.0330 C.2     1  UNL1        0.2673
      7 O         138.2812  139.1540  168.0994 O.2     1  UNL1       -0.2682
      8 N         140.3697  140.5362  167.4085 N.am    1  UNL1       -0.2765
      9 C         141.2792  141.0706  166.3420 C.3     1  UNL1        0.0937
     10 C         142.4583  141.9185  166.7175 C.3     1  UNL1        0.0216
     11 C         142.7277  142.2320  168.1594 C.3     1  UNL1        0.0034
     12 C         141.8182  141.6977  169.2259 C.3     1  UNL1        0.0183
     13 C         142.0877  142.0112  170.6677 C.3     1  UNL1        0.0017
     14 C         140.6391  140.8498  168.8504 C.3     1  UNL1        0.0757
     15 C         139.7297  140.3155  169.9168 C.3     1  UNL1        0.0215
     16 N         137.3883  139.9937  162.0793 N.pl3   1  UNL1       -0.2927
     17 H         136.4916  139.6514  161.8602 H       1  UNL1        0.1541
     18 C         140.0355  143.9940  158.4751 C.3     1  UNL1        0.0310
     19 C         139.3737  142.9939  159.3761 C.ar    1  UNL1       -0.0218
     20 C         138.8473  141.7081  158.8109 C.ar    1  UNL1       -0.0030
     21 C         138.1855  140.7080  159.7120 C.ar    1  UNL1        0.0143
     22 C         138.0501  140.9938  161.1782 C.ar    1  UNL1        0.0497
     23 C         138.5765  142.2796  161.7434 C.ar    1  UNL1        0.0143
     24 C         139.2382  143.2797  160.8424 C.ar    1  UNL1       -0.0030
@<TRIPOS>BOND
     1    18    19    1
     2    19    20   ar
     3    20    21   ar
     4    21    22   ar
     5    22    16    1
     6    16     1    1
     7     1     2   ar
     8     2     3   ar
     9     3     6    1
    10     6     7    2
    11     6     8   am
    12     8     9    1
    13     9    10    1
    14    10    11    1
    15    11    12    1
    16    12    13    1
    17    12    14    1
    18    14    15    1
    19     3     4   ar
    20     4     5   ar
    21    22    23   ar
    22    23    24   ar
    23    24    19   ar
    24     5     1   ar
    25    14     8    1
    26    16    17    1
@<TRIPOS>MOLECULE
*****
 24 26 0 0 0
SMALL
GASTEIGER

@<TRIPOS>ATOM
      1 C         142.7229  138.2310  163.2597 C.ar    1  UNL1        0.1637
      2 N         142.1573  138.2071  164.6488 N.ar    1  UNL1       -0.2194
      3 C         143.0737  138.9964  165.5362 C.ar    1  UNL1        0.1431
      4 C         144.2058  139.5080  164.6954 C.ar    1  UNL1        0.0619
      5 S         143.9890  139.0350  163.2886 S.2     1  UNL1       -0.0507
      6 C         142.8903  139.2325  167.0060 C.2     1  UNL1        0.2673
      7 O         143.4946  138.2845  167.9991 O.2     1  UNL1       -0.2682
      8 N         142.1027  140.4166  167.4829 N.am    1  UNL1       -0.2765
      9 C         141.4984  141.3646  166.4898 C.3     1  UNL1        0.0937
     10 C         140.7107  142.5488  166.9666 C.3     1  UNL1        0.0216
     11 C         140.5273  142.7849  168.4365 C.3     1  UNL1        0.0034
     12 C         141.1316  141.8369  169.4296 C.3     1  UNL1        0.0183
     13 C         140.9482  142.0730  170.8995 C.3     1  UNL1        0.0017
     14 C         141.9193  140.6527  168.9528 C.3     1  UNL1        0.0757
     15 C         142.5235  139.7048  169.9458 C.3     1  UNL1        0.0215
     16 N         142.1272  137.5675  162.0536 N.pl3   1  UNL1       -0.2927
     17 H         142.4237  136.6662  161.7909 H       1  UNL1        0.1541
     18 C         137.9374  140.4059  158.8305 C.3     1  UNL1        0.0310
     19 C         138.9848  139.6963  159.6362 C.ar    1  UNL1       -0.0218
     20 C         138.5861  138.8687  160.8220 C.ar    1  UNL1       -0.0030
     21 C         139.6335  138.1591  161.6278 C.ar    1  UNL1        0.0143
     22 C         141.0798  138.2771  161.2478 C.ar    1  UNL1        0.0497
     23 C         141.4785  139.1046  160.0621 C.ar    1  UNL1        0.0143
     24 C         140.4311  139.8142  159.2563 C.ar    1  UNL1       -0.0030
@<TRIPOS>BOND
     1    18    19    1
     2    19    20   ar
     3    20    21   ar
     4    21    22   ar
     5    22    16    1
     6    16     1    1
     7     1     2   ar
     8     2     3   ar
     9     3     6    1
    10     6     7    2
    11     6     8   am
    12     8     9    1
    13     9    10    1
    14    10    11    1
    15    11    12    1
    16    12    13    1
    17    12    14    1
    18    14    15    1
    19     3     4   ar
    20     4     5   ar
    21    22    23   ar
    22    23    24   ar
    23    24    19   ar
    24     5     1   ar
    25    14     8    1
    26    16    17    1
@<TRIPOS>MOLECULE
*****
 24 26 0 0 0
SMALL
GASTEIGER

@<TRIPOS>ATOM
      1 C         142.8054  138.7940  157.7083 C.ar    1  UNL1        0.1637
      2 N         143.6594  138.7113  158.9387 N.ar    1  UNL1       -0.2194
      3 C         142.9789  139.4859  160.0283 C.ar    1  UNL1        0.1431
      4 C         141.7043  140.0473  159.4712 C.ar    1  UNL1        0.0619
      5 S         141.5970  139.6196  158.0374 S.2     1  UNL1       -0.0507
      6 C         143.4842  139.6673  161.4289 C.2     1  UNL1        0.2673
      7 O         144.6226  140.6057  161.6998 O.2     1  UNL1       -0.2682
      8 N         142.8512  138.9103  162.5585 N.am    1  UNL1       -0.2765
      9 C         141.7127  137.9719  162.2875 C.3     1  UNL1        0.0937
     10 C         141.0796  137.2149  163.4172 C.3     1  UNL1        0.0216
     11 C         141.5849  137.3963  164.8178 C.3     1  UNL1        0.0034
     12 C         142.7234  138.3347  165.0888 C.3     1  UNL1        0.0183
     13 C         143.2288  138.5161  166.4894 C.3     1  UNL1        0.0017
     14 C         143.3565  139.0917  163.9591 C.3     1  UNL1        0.0757
     15 C         144.4949  140.0301  164.2301 C.3     1  UNL1        0.0215
     16 N         143.1068  138.1619  156.3818 N.pl3   1  UNL1       -0.2927
     17 H         143.5860  138.6734  155.6904 H       1  UNL1        0.1541
     18 C         141.3921  132.5169  155.2895 C.3     1  UNL1        0.0310
     19 C         141.8208  133.9282  155.5625 C.ar    1  UNL1       -0.0218
     20 C         142.7814  134.2178  156.6775 C.ar    1  UNL1       -0.0030
     21 C         143.2101  135.6290  156.9506 C.ar    1  UNL1        0.0143
     22 C         142.6781  136.7507  156.1087 C.ar    1  UNL1        0.0497
     23 C         141.7175  136.4611  154.9938 C.ar    1  UNL1        0.0143
     24 C         141.2888  135.0498  154.7207 C.ar    1  UNL1       -0.0030
@<TRIPOS>BOND
     1    18    19    1
     2    19    20   ar
     3    20    21   ar
     4    21    22   ar
     5    22    16    1
     6    16     1    1
     7     1     2   ar
     8     2     3   ar
     9     3     6    1
    10     6     7    2
    11     6     8   am
    12     8     9    1
    13     9    10    1
    14    10    11    1
    15    11    12    1
    16    12    13    1
    17    12    14    1
    18    14    15    1
    19     3     4   ar
    20     4     5   ar
    21    22    23   ar
    22    23    24   ar
    23    24    19   ar
    24     5     1   ar
    25    14     8    1
    26    16    17    1
@<TRIPOS>MOLECULE
*****
 24 26 0 0 0
SMALL
GASTEIGER

@<TRIPOS>ATOM
      1 C         142.8774  139.3185  166.7692 C.ar    1  UNL1        0.1637
      2 N         141.9706  140.0767  165.8457 N.ar    1  UNL1       -0.2194
      3 C         142.3364  139.7150  164.4366 C.ar    1  UNL1        0.1431
      4 C         143.4694  138.7333  164.4893 C.ar    1  UNL1        0.0619
      5 S         143.8037  138.4882  165.9309 S.2     1  UNL1       -0.0507
      6 C         141.6839  140.2424  163.1932 C.2     1  UNL1        0.2673
      7 O         142.2764  141.4197  162.4769 O.2     1  UNL1       -0.2682
      8 N         140.4390  139.5927  162.6662 N.am    1  UNL1       -0.2765
      9 C         139.8465  138.4154  163.3825 C.3     1  UNL1        0.0937
     10 C         138.6016  137.7656  162.8555 C.3     1  UNL1        0.0216
     11 C         137.9491  138.2930  161.6121 C.3     1  UNL1        0.0034
     12 C         138.5415  139.4703  160.8957 C.3     1  UNL1        0.0183
     13 C         137.8890  139.9977  159.6523 C.3     1  UNL1        0.0017
     14 C         139.7865  140.1201  161.4228 C.3     1  UNL1        0.0757
     15 C         140.3789  141.2973  160.7065 C.3     1  UNL1        0.0215
     16 N         142.8609  139.3798  168.2679 N.pl3   1  UNL1       -0.2927
     17 H         143.4257  138.7669  168.7919 H       1  UNL1        0.1541
     18 C         139.3527  143.3605  171.0691 C.3     1  UNL1        0.0310
     19 C         140.2298  142.3653  170.3688 C.ar    1  UNL1       -0.0218
     20 C         139.7002  141.0018  170.0367 C.ar    1  UNL1       -0.0030
     21 C         140.5772  140.0067  169.3364 C.ar    1  UNL1        0.0143
     22 C         141.9838  140.3750  168.9682 C.ar    1  UNL1        0.0497
     23 C         142.5135  141.7385  169.3003 C.ar    1  UNL1        0.0143
     24 C         141.6364  142.7337  170.0006 C.ar    1  UNL1       -0.0030
@<TRIPOS>BOND
     1    18    19    1
     2    19    20   ar
     3    20    21   ar
     4    21    22   ar
     5    22    16    1
     6    16     1    1
     7     1     2   ar
     8     2     3   ar
     9     3     6    1
    10     6     7    2
    11     6     8   am
    12     8     9    1
    13     9    10    1
    14    10    11    1
    15    11    12    1
    16    12    13    1
    17    12    14    1
    18    14    15    1
    19     3     4   ar
    20     4     5   ar
    21    22    23   ar
    22    23    24   ar
    23    24    19   ar
    24     5     1   ar
    25    14     8    1
    26    16    17    1
@<TRIPOS>MOLECULE
*****
 24 26 0 0 0
SMALL
GASTEIGER

@<TRIPOS>ATOM
      1 C         141.0299  144.9467  161.0570 C.ar    1  UNL1        0.1637
      2 N         141.7118  145.4210  159.8080 N.ar    1  UNL1       -0.2194
      3 C         141.2547  144.5539  158.6724 C.ar    1  UNL1        0.1431
      4 C         140.2903  143.5437  159.2197 C.ar    1  UNL1        0.0619
      5 S         140.1514  143.7865  160.6934 S.2     1  UNL1       -0.0507
      6 C         141.6863  144.6756  157.2410 C.2     1  UNL1        0.2673
      7 O         142.8061  143.8242  156.7203 O.2     1  UNL1       -0.2682
      8 N         140.9982  145.6488  156.3304 N.am    1  UNL1       -0.2765
      9 C         139.8784  146.5003  156.8512 C.3     1  UNL1        0.0937
     10 C         139.1902  147.4734  155.9405 C.3     1  UNL1        0.0216
     11 C         139.6217  147.5952  154.5091 C.3     1  UNL1        0.0034
     12 C         140.7415  146.7437  153.9883 C.3     1  UNL1        0.0183
     13 C         141.1731  146.8654  152.5570 C.3     1  UNL1        0.0017
     14 C         141.4297  145.7705  154.8990 C.3     1  UNL1        0.0757
     15 C         142.5494  144.9191  154.3783 C.3     1  UNL1        0.0215
     16 N         141.1971  145.5302  162.4287 N.pl3   1  UNL1       -0.2927
     17 H         141.4341  146.4799  162.5341 H       1  UNL1        0.1541
     18 C         140.4216  142.0760  167.2730 C.3     1  UNL1        0.0310
     19 C         140.6155  142.9396  166.0620 C.ar    1  UNL1       -0.0218
     20 C         139.5243  143.8698  165.6216 C.ar    1  UNL1       -0.0030
     21 C         139.7182  144.7333  164.4106 C.ar    1  UNL1        0.0143
     22 C         141.0033  144.6666  163.6398 C.ar    1  UNL1        0.0497
     23 C         142.0944  143.7364  164.0801 C.ar    1  UNL1        0.0143
     24 C         141.9006  142.8729  165.2912 C.ar    1  UNL1       -0.0030
@<TRIPOS>BOND
     1    18    19    1
     2    19    20   ar
     3    20    21   ar
     4    21    22   ar
     5    22    16    1
     6    16     1    1
     7     1     2   ar
     8     2     3   ar
     9     3     6    1
    10     6     7    2
    11     6     8   am
    12     8     9    1
    13     9    10    1
    14    10    11    1
    15    11    12    1
    16    12    13    1
    17    12    14    1
    18    14    15    1
    19     3     4   ar
    20     4     5   ar
    21    22    23   ar
    22    23    24   ar
    23    24    19   ar
    24     5     1   ar
    25    14     8    1
    26    16    17    1
@<TRIPOS>MOLECULE
*****
 24 26 0 0 0
SMALL
GASTEIGER

@<TRIPOS>ATOM
      1 C         138.7769  139.2868  166.3128 C.ar    1  UNL1        0.1637
      2 N         138.7126  140.4694  165.3923 N.ar    1  UNL1       -0.2194
      3 C         138.6506  139.9576  163.9836 C.ar    1  UNL1        0.1431
      4 C         138.6767  138.4586  164.0335 C.ar    1  UNL1        0.0619
      5 S         138.7548  138.0440  165.4730 S.2     1  UNL1       -0.0507
      6 C         138.5758  140.7972  162.7429 C.2     1  UNL1        0.2673
      7 O         137.2429  141.1215  162.1361 O.2     1  UNL1       -0.2682
      8 N         139.8337  141.3127  162.1091 N.am    1  UNL1       -0.2765
      9 C         141.1666  140.9884  162.7161 C.3     1  UNL1        0.0937
     10 C         142.4247  141.5038  162.0822 C.3     1  UNL1        0.0216
     11 C         142.3498  142.3435  160.8416 C.3     1  UNL1        0.0034
     12 C         141.0169  142.6678  160.2346 C.3     1  UNL1        0.0183
     13 C         140.9420  143.5075  158.9940 C.3     1  UNL1        0.0017
     14 C         139.7589  142.1523  160.8685 C.3     1  UNL1        0.0757
     15 C         138.4261  142.4766  160.2616 C.3     1  UNL1        0.0215
     16 N         138.8505  139.3379  167.8101 N.pl3   1  UNL1       -0.2927
     17 H         138.2624  138.7634  168.3517 H       1  UNL1        0.1541
     18 C         142.7290  143.0433  170.4984 C.3     1  UNL1        0.0310
     19 C         141.7593  142.1170  169.8263 C.ar    1  UNL1       -0.0218
     20 C         142.1607  141.3877  168.5785 C.ar    1  UNL1       -0.0030
     21 C         141.1911  140.4614  167.9065 C.ar    1  UNL1        0.0143
     22 C         139.8201  140.2642  168.4822 C.ar    1  UNL1        0.0497
     23 C         139.4188  140.9935  169.7300 C.ar    1  UNL1        0.0143
     24 C         140.3884  141.9198  170.4021 C.ar    1  UNL1       -0.0030
@<TRIPOS>BOND
     1    18    19    1
     2    19    20   ar
     3    20    21   ar
     4    21    22   ar
     5    22    16    1
     6    16     1    1
     7     1     2   ar
     8     2     3   ar
     9     3     6    1
    10     6     7    2
    11     6     8   am
    12     8     9    1
    13     9    10    1
    14    10    11    1
    15    11    12    1
    16    12    13    1
    17    12    14    1
    18    14    15    1
    19     3     4   ar
    20     4     5   ar
    21    22    23   ar
    22    23    24   ar
    23    24    19   ar
    24     5     1   ar
    25    14     8    1
    26    16    17    1
@<TRIPOS>MOLECULE
*****
 24 26 0 0 0
SMALL
GASTEIGER

@<TRIPOS>ATOM
      1 C         142.9797  139.0358  157.7167 C.ar    1  UNL1        0.1637
      2 N         143.1593  138.3235  159.0246 N.ar    1  UNL1       -0.2194
      3 C         142.1190  138.8341  159.9771 C.ar    1  UNL1        0.1431
      4 C         141.2965  139.8619  159.2580 C.ar    1  UNL1        0.0619
      5 S         141.8284  139.9866  157.8610 S.2     1  UNL1       -0.0507
      6 C         141.9337  138.3941  161.3991 C.2     1  UNL1        0.2673
      7 O         140.8221  137.4515  161.7537 O.2     1  UNL1       -0.2682
      8 N         142.8601  138.8965  162.4664 N.am    1  UNL1       -0.2765
      9 C         143.9718  139.8391  162.1117 C.3     1  UNL1        0.0937
     10 C         144.8983  140.3417  163.1790 C.3     1  UNL1        0.0216
     11 C         144.7130  139.9016  164.6010 C.3     1  UNL1        0.0034
     12 C         143.6013  138.9591  164.9557 C.3     1  UNL1        0.0183
     13 C         143.4161  138.5190  166.3777 C.3     1  UNL1        0.0017
     14 C         142.6749  138.4565  163.8884 C.3     1  UNL1        0.0757
     15 C         141.5633  137.5140  164.2431 C.3     1  UNL1        0.0215
     16 N         143.8062  138.8330  156.4815 N.pl3   1  UNL1       -0.2927
     17 H         143.7506  137.9841  155.9860 H       1  UNL1        0.1541
     18 C         147.4511  143.1949  154.5609 C.3     1  UNL1        0.0310
     19 C         146.5399  142.1044  155.0411 C.ar    1  UNL1       -0.0218
     20 C         146.1585  142.0293  156.4898 C.ar    1  UNL1       -0.0030
     21 C         145.2473  140.9388  156.9700 C.ar    1  UNL1        0.0143
     22 C         144.7174  139.9235  156.0014 C.ar    1  UNL1        0.0497
     23 C         145.0988  139.9986  154.5527 C.ar    1  UNL1        0.0143
     24 C         146.0100  141.0890  154.0725 C.ar    1  UNL1       -0.0030
@<TRIPOS>BOND
     1    18    19    1
     2    19    20   ar
     3    20    21   ar
     4    21    22   ar
     5    22    16    1
     6    16     1    1
     7     1     2   ar
     8     2     3   ar
     9     3     6    1
    10     6     7    2
    11     6     8   am
    12     8     9    1
    13     9    10    1
    14    10    11    1
    15    11    12    1
    16    12    13    1
    17    12    14    1
    18    14    15    1
    19     3     4   ar
    20     4     5   ar
    21    22    23   ar
    22    23    24   ar
    23    24    19   ar
    24     5     1   ar
    25    14     8    1
    26    16    17    1
