@<TRIPOS>MOLECULE
*****
 33 36 0 0 0
SMALL
GASTEIGER

@<TRIPOS>ATOM
      1 C         142.8796  142.4880  164.9451 C.ar    1  UNL1        0.1122
      2 N         142.0730  142.8433  163.7313 N.ar    1  UNL1       -0.2259
      3 C         142.7127  144.0347  163.0821 C.ar    1  UNL1        0.1412
      4 C         143.9146  144.4158  163.8947 C.ar    1  UNL1        0.0710
      5 S         144.0177  143.4599  165.0461 S.2     1  UNL1       -0.0670
      6 C         139.9294  142.0231  169.4540 C.3     1  UNL1        0.0320
      7 C         140.8188  141.8017  168.2665 C.3     1  UNL1        0.1155
      8 C         141.4261  140.4516  168.0256 C.3     1  UNL1        0.0328
      9 C         142.3155  140.2302  166.8382 C.3     1  UNL1        0.0426
     10 C         142.9228  138.8799  166.5973 C.3     1  UNL1        0.0673
     11 S         143.8122  138.6586  165.4099 S.3     1  UNL1       -0.0807
     12 C         144.0942  139.7876  164.4633 C.2     1  UNL1        0.1483
     13 N         144.9836  139.5663  163.2759 N.pl3   1  UNL1       -0.3380
     14 N         143.4869  141.1378  164.7042 N.2     1  UNL1       -0.2464
     15 C         142.5975  141.3591  165.8916 C.3     1  UNL1        0.1549
     16 C         141.9902  142.7093  166.1325 C.3     1  UNL1        0.1705
     17 O         141.1008  142.9306  167.3200 O.3     1  UNL1       -0.3538
     18 H         145.3822  138.6801  163.1178 H       1  UNL1        0.1442
     19 H         145.1687  140.3072  162.6546 H       1  UNL1        0.1442
     20 N         142.2345  144.7241  161.8387 N.am    1  UNL1       -0.2641
     21 C         142.2404  143.9953  160.5277 C.2     1  UNL1        0.2683
     22 O         142.7245  142.5771  160.4601 O.2     1  UNL1       -0.2681
     23 H         141.9168  145.6548  161.8830 H       1  UNL1        0.1566
     24 C         141.7621  144.6846  159.2843 C.ar    1  UNL1        0.1350
     25 C         140.4072  145.3276  159.2571 C.ar    1  UNL1        0.0269
     26 C         139.9289  146.0169  158.0136 C.ar    1  UNL1        0.0404
     27 C         140.8056  146.0633  156.7974 C.ar    1  UNL1        0.1634
     28 C         142.1606  145.4204  156.8247 C.ar    1  UNL1        0.1359
     29 N         142.6388  144.7311  158.0681 N.ar    1  UNL1       -0.2361
     30 O         140.3274  146.7526  155.5540 O.3     1  UNL1       -0.4220
     31 C         138.9022  147.2085  155.4501 C.3     1  UNL1        0.5087
     32 F         137.8297  146.2345  155.0615 F       1  UNL1       -0.1550
     33 F         138.5494  148.6383  155.7349 F       1  UNL1       -0.1550
@<TRIPOS>BOND
     1     7     6    1
     2     7     8    1
     3     9     8    1
     4     9    10    1
     5    10    11    1
     6    11    12    1
     7    12    13    1
     8    12    14    2
     9    14    15    1
    10    15     1    1
    11     1     2   ar
    12     2     3   ar
    13     3    20    1
    14    20    21   am
    15    21    22    2
    16    21    24    1
    17    24    25   ar
    18    25    26   ar
    19    26    27   ar
    20    27    30    1
    21    30    31    1
    22    31    32    1
    23    31    33    1
    24    27    28   ar
    25    28    29   ar
    26     3     4   ar
    27     4     5   ar
    28    15    16    1
    29    16    17    1
    30    17     7    1
    31    15     9    1
    32     5     1   ar
    33    29    24   ar
    34    13    18    1
    35    13    19    1
    36    20    23    1
@<TRIPOS>MOLECULE
*****
 33 36 0 0 0
SMALL
GASTEIGER

@<TRIPOS>ATOM
      1 C         141.4189  141.0737  164.5471 C.ar    1  UNL1        0.1122
      2 N         140.7623  142.0333  163.5994 N.ar    1  UNL1       -0.2259
      3 C         141.4236  141.8884  162.2608 C.ar    1  UNL1        0.1412
      4 C         142.4889  140.8392  162.3812 C.ar    1  UNL1        0.0710
      5 S         142.4860  140.3357  163.7942 S.2     1  UNL1       -0.0670
      6 C         137.5041  138.3914  167.1413 C.3     1  UNL1        0.0320
      7 C         138.6927  139.2227  166.7587 C.3     1  UNL1        0.1155
      8 C         139.5321  139.8654  167.8227 C.3     1  UNL1        0.0328
      9 C         140.7206  140.6967  167.4402 C.3     1  UNL1        0.0426
     10 C         141.5601  141.3395  168.5043 C.3     1  UNL1        0.0673
     11 S         142.7486  142.1708  168.1218 S.3     1  UNL1       -0.0807
     12 C         143.0977  142.3593  166.6752 C.2     1  UNL1        0.1483
     13 N         144.2863  143.1906  166.2926 N.pl3   1  UNL1       -0.3380
     14 N         142.2583  141.7165  165.6111 N.2     1  UNL1       -0.2464
     15 C         141.0698  140.8852  165.9937 C.3     1  UNL1        0.1549
     16 C         140.2303  140.2424  164.9297 C.3     1  UNL1        0.1705
     17 O         139.0418  139.4112  165.3122 O.3     1  UNL1       -0.3538
     18 H         144.8372  143.6125  166.9910 H       1  UNL1        0.1442
     19 H         144.5154  143.3143  165.3432 H       1  UNL1        0.1442
     20 N         141.0799  142.6575  161.0197 N.am    1  UNL1       -0.2641
     21 C         141.9458  143.8016  160.5825 C.2     1  UNL1        0.2683
     22 O         143.1554  144.1766  161.3865 O.2     1  UNL1       -0.2681
     23 H         140.2860  142.4114  160.4921 H       1  UNL1        0.1566
     24 C         141.6021  144.5707  159.3415 C.ar    1  UNL1        0.1350
     25 C         140.2558  145.2190  159.2096 C.ar    1  UNL1        0.0269
     26 C         139.9122  145.9881  157.9685 C.ar    1  UNL1        0.0404
     27 C         140.9147  146.1091  156.8593 C.ar    1  UNL1        0.1634
     28 C         142.2609  145.4608  156.9913 C.ar    1  UNL1        0.1359
     29 N         142.6046  144.6916  158.2323 N.ar    1  UNL1       -0.2361
     30 O         140.5710  146.8782  155.6183 O.3     1  UNL1       -0.4220
     31 C         139.1858  147.4230  155.4331 C.3     1  UNL1        0.5087
     32 F         138.0647  146.5055  155.0443 F       1  UNL1       -0.1550
     33 F         138.9217  148.8855  155.6366 F       1  UNL1       -0.1550
@<TRIPOS>BOND
     1     7     6    1
     2     7     8    1
     3     9     8    1
     4     9    10    1
     5    10    11    1
     6    11    12    1
     7    12    13    1
     8    12    14    2
     9    14    15    1
    10    15     1    1
    11     1     2   ar
    12     2     3   ar
    13     3    20    1
    14    20    21   am
    15    21    22    2
    16    21    24    1
    17    24    25   ar
    18    25    26   ar
    19    26    27   ar
    20    27    30    1
    21    30    31    1
    22    31    32    1
    23    31    33    1
    24    27    28   ar
    25    28    29   ar
    26     3     4   ar
    27     4     5   ar
    28    15    16    1
    29    16    17    1
    30    17     7    1
    31    15     9    1
    32     5     1   ar
    33    29    24   ar
    34    13    18    1
    35    13    19    1
    36    20    23    1
@<TRIPOS>MOLECULE
*****
 33 36 0 0 0
SMALL
GASTEIGER

@<TRIPOS>ATOM
      1 C         140.4903  143.6930  163.8420 C.ar    1  UNL1        0.1122
      2 N         140.8521  143.9806  162.4149 N.ar    1  UNL1       -0.2259
      3 C         139.6693  144.6288  161.7584 C.ar    1  UNL1        0.1412
      4 C         138.5765  144.7419  162.7798 C.ar    1  UNL1        0.0710
      5 S         139.0839  144.1636  164.0675 S.2     1  UNL1       -0.0670
      6 C         139.6382  140.2014  167.8834 C.3     1  UNL1        0.0320
      7 C         140.2184  141.1504  166.8769 C.3     1  UNL1        0.1155
      8 C         141.6871  141.4545  166.8926 C.3     1  UNL1        0.0328
      9 C         142.2674  142.4034  165.8862 C.3     1  UNL1        0.0426
     10 C         143.7362  142.7075  165.9019 C.3     1  UNL1        0.0673
     11 S         144.3164  143.6564  164.8954 S.3     1  UNL1       -0.0807
     12 C         143.4278  144.3012  163.8733 C.2     1  UNL1        0.1483
     13 N         144.0080  145.2502  162.8669 N.pl3   1  UNL1       -0.3380
     14 N         141.9591  143.9971  163.8577 N.2     1  UNL1       -0.2464
     15 C         141.3788  143.0482  164.8641 C.3     1  UNL1        0.1549
     16 C         139.9101  142.7441  164.8484 C.3     1  UNL1        0.1705
     17 O         139.3299  141.7952  165.8549 O.3     1  UNL1       -0.3538
     18 H         144.9720  145.4497  162.8772 H       1  UNL1        0.1442
     19 H         143.4248  145.6734  162.1961 H       1  UNL1        0.1442
     20 N         139.5928  145.0841  160.3313 N.am    1  UNL1       -0.2641
     21 C         140.8463  145.2181  159.5186 C.2     1  UNL1        0.2683
     22 O         142.1765  144.8970  160.1331 O.2     1  UNL1       -0.2681
     23 H         138.7197  145.2948  159.9280 H       1  UNL1        0.1566
     24 C         140.7697  145.6733  158.0914 C.ar    1  UNL1        0.1350
     25 C         141.8414  145.2775  157.1194 C.ar    1  UNL1        0.0269
     26 C         141.7649  145.7327  155.6922 C.ar    1  UNL1        0.0404
     27 C         140.6167  146.5837  155.2369 C.ar    1  UNL1        0.1634
     28 C         139.5450  146.9796  156.2089 C.ar    1  UNL1        0.1359
     29 N         139.6216  146.5244  157.6361 N.ar    1  UNL1       -0.2361
     30 O         140.5402  147.0390  153.8097 O.3     1  UNL1       -0.4220
     31 C         140.2955  148.4851  153.4959 C.3     1  UNL1        0.5087
     32 F         139.6304  148.8710  152.2080 F       1  UNL1       -0.1550
     33 F         140.7160  149.5455  154.4700 F       1  UNL1       -0.1550
@<TRIPOS>BOND
     1     7     6    1
     2     7     8    1
     3     9     8    1
     4     9    10    1
     5    10    11    1
     6    11    12    1
     7    12    13    1
     8    12    14    2
     9    14    15    1
    10    15     1    1
    11     1     2   ar
    12     2     3   ar
    13     3    20    1
    14    20    21   am
    15    21    22    2
    16    21    24    1
    17    24    25   ar
    18    25    26   ar
    19    26    27   ar
    20    27    30    1
    21    30    31    1
    22    31    32    1
    23    31    33    1
    24    27    28   ar
    25    28    29   ar
    26     3     4   ar
    27     4     5   ar
    28    15    16    1
    29    16    17    1
    30    17     7    1
    31    15     9    1
    32     5     1   ar
    33    29    24   ar
    34    13    18    1
    35    13    19    1
    36    20    23    1
@<TRIPOS>MOLECULE
*****
 33 36 0 0 0
SMALL
GASTEIGER

@<TRIPOS>ATOM
      1 C         141.7485  141.1233  164.7212 C.ar    1  UNL1        0.1122
      2 N         141.0187  141.9216  163.6819 N.ar    1  UNL1       -0.2259
      3 C         141.8353  141.9012  162.4237 C.ar    1  UNL1        0.1412
      4 C         143.0698  141.0902  162.6855 C.ar    1  UNL1        0.0710
      5 S         143.0162  140.6095  164.1053 S.2     1  UNL1       -0.0670
      6 C         143.6894  142.4874  169.5815 C.3     1  UNL1        0.0320
      7 C         142.8900  141.9521  168.4307 C.3     1  UNL1        0.1155
      8 C         141.6332  141.1747  168.6878 C.3     1  UNL1        0.0328
      9 C         140.8337  140.6394  167.5370 C.3     1  UNL1        0.0426
     10 C         139.5769  139.8620  167.7941 C.3     1  UNL1        0.0673
     11 S         138.7775  139.3267  166.6433 S.3     1  UNL1       -0.0807
     12 C         139.2349  139.5687  165.2354 C.2     1  UNL1        0.1483
     13 N         138.4355  139.0333  164.0846 N.pl3   1  UNL1       -0.3380
     14 N         140.4917  140.3460  164.9783 N.2     1  UNL1       -0.2464
     15 C         141.2911  140.8814  166.1291 C.3     1  UNL1        0.1549
     16 C         142.5480  141.6587  165.8720 C.3     1  UNL1        0.1705
     17 O         143.3474  142.1940  167.0228 O.3     1  UNL1       -0.3538
     18 H         137.6106  138.5231  164.2533 H       1  UNL1        0.1442
     19 H         138.7357  139.1922  163.1605 H       1  UNL1        0.1442
     20 N         141.4797  142.5736  161.1309 N.am    1  UNL1       -0.2641
     21 C         142.0534  143.9202  160.8034 C.2     1  UNL1        0.2683
     22 O         142.9826  144.5945  161.7688 O.2     1  UNL1       -0.2681
     23 H         140.8699  142.1310  160.4973 H       1  UNL1        0.1566
     24 C         141.6978  144.5926  159.5106 C.ar    1  UNL1        0.1350
     25 C         140.4080  145.3485  159.3882 C.ar    1  UNL1        0.0269
     26 C         140.0525  146.0209  158.0954 C.ar    1  UNL1        0.0404
     27 C         140.9867  145.9375  156.9249 C.ar    1  UNL1        0.1634
     28 C         142.2765  145.1816  157.0472 C.ar    1  UNL1        0.1359
     29 N         142.6321  144.5091  158.3401 N.ar    1  UNL1       -0.2361
     30 O         140.6312  146.6099  155.6321 O.3     1  UNL1       -0.4220
     31 C         139.2877  147.2562  155.4675 C.3     1  UNL1        0.5087
     32 F         139.1639  148.7504  155.5110 F       1  UNL1       -0.1550
     33 F         138.0679  146.4083  155.2595 F       1  UNL1       -0.1550
@<TRIPOS>BOND
     1     7     6    1
     2     7     8    1
     3     9     8    1
     4     9    10    1
     5    10    11    1
     6    11    12    1
     7    12    13    1
     8    12    14    2
     9    14    15    1
    10    15     1    1
    11     1     2   ar
    12     2     3   ar
    13     3    20    1
    14    20    21   am
    15    21    22    2
    16    21    24    1
    17    24    25   ar
    18    25    26   ar
    19    26    27   ar
    20    27    30    1
    21    30    31    1
    22    31    32    1
    23    31    33    1
    24    27    28   ar
    25    28    29   ar
    26     3     4   ar
    27     4     5   ar
    28    15    16    1
    29    16    17    1
    30    17     7    1
    31    15     9    1
    32     5     1   ar
    33    29    24   ar
    34    13    18    1
    35    13    19    1
    36    20    23    1
@<TRIPOS>MOLECULE
*****
 33 36 0 0 0
SMALL
GASTEIGER

@<TRIPOS>ATOM
      1 C         140.3899  143.3592  163.8138 C.ar    1  UNL1        0.1122
      2 N         139.9372  142.5793  162.6152 N.ar    1  UNL1       -0.2259
      3 C         138.9962  143.4430  161.8285 C.ar    1  UNL1        0.1412
      4 C         138.8673  144.7567  162.5410 C.ar    1  UNL1        0.0710
      5 S         139.7286  144.7049  163.7680 S.2     1  UNL1       -0.0670
      6 C         139.8552  140.1965  168.1682 C.3     1  UNL1        0.0320
      7 C         140.3493  141.0903  167.0696 C.3     1  UNL1        0.1155
      8 C         141.7908  141.5030  167.0296 C.3     1  UNL1        0.0328
      9 C         142.2848  142.3968  165.9310 C.3     1  UNL1        0.0426
     10 C         143.7265  142.8095  165.8910 C.3     1  UNL1        0.0673
     11 S         144.2205  143.7033  164.7924 S.3     1  UNL1       -0.0807
     12 C         143.2729  144.1845  163.7338 C.2     1  UNL1        0.1483
     13 N         143.7670  145.0784  162.6352 N.pl3   1  UNL1       -0.3380
     14 N         141.8314  143.7719  163.7738 N.2     1  UNL1       -0.2464
     15 C         141.3374  142.8780  164.8724 C.3     1  UNL1        0.1549
     16 C         139.8958  142.4654  164.9124 C.3     1  UNL1        0.1705
     17 O         139.4018  141.5715  166.0111 O.3     1  UNL1       -0.3538
     18 H         144.7131  145.3492  162.6089 H       1  UNL1        0.1442
     19 H         143.1451  145.3942  161.9404 H       1  UNL1        0.1442
     20 N         138.3053  143.0602  160.5533 N.am    1  UNL1       -0.2641
     21 C         139.0901  142.9468  159.2800 C.2     1  UNL1        0.2683
     22 O         140.5658  143.2162  159.2820 O.2     1  UNL1       -0.2681
     23 H         137.3369  142.8833  160.5520 H       1  UNL1        0.1566
     24 C         138.3993  142.5639  158.0048 C.ar    1  UNL1        0.1350
     25 C         138.5992  143.3874  156.7671 C.ar    1  UNL1        0.0269
     26 C         137.9084  143.0046  155.4919 C.ar    1  UNL1        0.0404
     27 C         137.0177  141.7984  155.4543 C.ar    1  UNL1        0.1634
     28 C         136.8178  140.9749  156.6920 C.ar    1  UNL1        0.1359
     29 N         137.5086  141.3577  157.9673 N.ar    1  UNL1       -0.2361
     30 O         136.3269  141.4155  154.1791 O.3     1  UNL1       -0.4220
     31 C         135.1503  140.4858  154.2134 C.3     1  UNL1        0.5087
     32 F         135.3665  139.0071  154.3419 F       1  UNL1       -0.1550
     33 F         133.7576  141.0348  154.1192 F       1  UNL1       -0.1550
@<TRIPOS>BOND
     1     7     6    1
     2     7     8    1
     3     9     8    1
     4     9    10    1
     5    10    11    1
     6    11    12    1
     7    12    13    1
     8    12    14    2
     9    14    15    1
    10    15     1    1
    11     1     2   ar
    12     2     3   ar
    13     3    20    1
    14    20    21   am
    15    21    22    2
    16    21    24    1
    17    24    25   ar
    18    25    26   ar
    19    26    27   ar
    20    27    30    1
    21    30    31    1
    22    31    32    1
    23    31    33    1
    24    27    28   ar
    25    28    29   ar
    26     3     4   ar
    27     4     5   ar
    28    15    16    1
    29    16    17    1
    30    17     7    1
    31    15     9    1
    32     5     1   ar
    33    29    24   ar
    34    13    18    1
    35    13    19    1
    36    20    23    1
@<TRIPOS>MOLECULE
*****
 33 36 0 0 0
SMALL
GASTEIGER

@<TRIPOS>ATOM
      1 C         142.3355  135.8394  156.3804 C.ar    1  UNL1        0.1122
      2 N         143.2880  136.5079  157.3270 N.ar    1  UNL1       -0.2259
      3 C         142.6321  137.7556  157.8403 C.ar    1  UNL1        0.1412
      4 C         141.2744  137.8581  157.2109 C.ar    1  UNL1        0.0710
      5 S         141.0911  136.6739  156.3087 S.2     1  UNL1       -0.0670
      6 C         144.6821  131.1418  157.6750 C.3     1  UNL1        0.0320
      7 C         143.9827  132.2815  156.9954 C.3     1  UNL1        0.1155
      8 C         143.5317  132.1429  155.5716 C.3     1  UNL1        0.0328
      9 C         142.8323  133.2826  154.8920 C.3     1  UNL1        0.0426
     10 C         142.3813  133.1438  153.4681 C.3     1  UNL1        0.0673
     11 S         141.6820  134.2836  152.7884 S.3     1  UNL1       -0.0807
     12 C         141.4336  135.5620  153.5327 C.2     1  UNL1        0.1483
     13 N         140.7342  136.7018  152.8531 N.pl3   1  UNL1       -0.3380
     14 N         141.8846  135.7007  154.9566 N.2     1  UNL1       -0.2464
     15 C         142.5839  134.5610  155.6362 C.3     1  UNL1        0.1549
     16 C         143.0349  134.6997  157.0600 C.3     1  UNL1        0.1705
     17 O         143.7343  133.5600  157.7396 O.3     1  UNL1       -0.3538
     18 H         140.4382  136.6107  151.9186 H       1  UNL1        0.1442
     19 H         140.5712  137.5409  153.3416 H       1  UNL1        0.1442
     20 N         143.2292  138.7296  158.8123 N.am    1  UNL1       -0.2641
     21 C         143.0992  138.4920  160.2876 C.2     1  UNL1        0.2683
     22 O         142.3721  137.2803  160.7909 O.2     1  UNL1       -0.2681
     23 H         143.7064  139.5248  158.4820 H       1  UNL1        0.1566
     24 C         143.6963  139.4660  161.2596 C.ar    1  UNL1        0.1350
     25 C         143.9434  140.8855  160.8427 C.ar    1  UNL1        0.0269
     26 C         144.5405  141.8595  161.8147 C.ar    1  UNL1        0.0404
     27 C         144.8904  141.4141  163.2036 C.ar    1  UNL1        0.1634
     28 C         144.6432  139.9945  163.6205 C.ar    1  UNL1        0.1359
     29 N         144.0461  139.0205  162.6485 N.ar    1  UNL1       -0.2361
     30 O         145.4874  142.3881  164.1756 O.3     1  UNL1       -0.4220
     31 C         144.5959  143.1938  165.0732 C.3     1  UNL1        0.5087
     32 F         143.8968  142.5337  166.2245 F       1  UNL1       -0.1550
     33 F         144.4034  144.6596  164.8196 F       1  UNL1       -0.1550
@<TRIPOS>BOND
     1     7     6    1
     2     7     8    1
     3     9     8    1
     4     9    10    1
     5    10    11    1
     6    11    12    1
     7    12    13    1
     8    12    14    2
     9    14    15    1
    10    15     1    1
    11     1     2   ar
    12     2     3   ar
    13     3    20    1
    14    20    21   am
    15    21    22    2
    16    21    24    1
    17    24    25   ar
    18    25    26   ar
    19    26    27   ar
    20    27    30    1
    21    30    31    1
    22    31    32    1
    23    31    33    1
    24    27    28   ar
    25    28    29   ar
    26     3     4   ar
    27     4     5   ar
    28    15    16    1
    29    16    17    1
    30    17     7    1
    31    15     9    1
    32     5     1   ar
    33    29    24   ar
    34    13    18    1
    35    13    19    1
    36    20    23    1
@<TRIPOS>MOLECULE
*****
 33 36 0 0 0
SMALL
GASTEIGER

@<TRIPOS>ATOM
      1 C         142.9515  135.5205  155.6949 C.ar    1  UNL1        0.1122
      2 N         141.7702  136.1626  156.3600 N.ar    1  UNL1       -0.2259
      3 C         142.0970  137.6085  156.5899 C.ar    1  UNL1        0.1412
      4 C         143.4803  137.8599  156.0669 C.ar    1  UNL1        0.0710
      5 S         144.0083  136.5695  155.5138 S.2     1  UNL1       -0.0670
      6 C         144.9973  131.0923  158.0305 C.3     1  UNL1        0.0320
      7 C         144.3507  132.0888  157.1147 C.3     1  UNL1        0.1155
      8 C         143.8098  131.6470  155.7873 C.3     1  UNL1        0.0328
      9 C         143.1632  132.6435  154.8715 C.3     1  UNL1        0.0426
     10 C         142.6223  132.2016  153.5440 C.3     1  UNL1        0.0673
     11 S         141.9757  133.1982  152.6282 S.3     1  UNL1       -0.0807
     12 C         141.8698  134.6367  153.0400 C.2     1  UNL1        0.1483
     13 N         141.2231  135.6333  152.1242 N.pl3   1  UNL1       -0.3380
     14 N         142.4106  135.0786  154.3674 N.2     1  UNL1       -0.2464
     15 C         143.0573  134.0820  155.2832 C.3     1  UNL1        0.1549
     16 C         143.5981  134.5239  156.6106 C.3     1  UNL1        0.1705
     17 O         144.2448  133.5273  157.5264 O.3     1  UNL1       -0.3538
     18 H         140.8682  135.3433  151.2529 H       1  UNL1        0.1442
     19 H         141.1537  136.5774  152.3944 H       1  UNL1        0.1442
     20 N         141.1984  138.6245  157.2304 N.am    1  UNL1       -0.2641
     21 C         141.2785  138.8714  158.7077 C.2     1  UNL1        0.2683
     22 O         142.2575  138.1023  159.5446 O.2     1  UNL1       -0.2681
     23 H         140.5559  139.1292  156.6811 H       1  UNL1        0.1566
     24 C         140.3799  139.8874  159.3481 C.ar    1  UNL1        0.1350
     25 C         139.0247  139.4816  159.8469 C.ar    1  UNL1        0.0269
     26 C         138.1261  140.4976  160.4874 C.ar    1  UNL1        0.0404
     27 C         138.5825  141.9193  160.6291 C.ar    1  UNL1        0.1634
     28 C         139.9377  142.3251  160.1303 C.ar    1  UNL1        0.1359
     29 N         140.8364  141.3091  159.4898 N.ar    1  UNL1       -0.2361
     30 O         137.6839  142.9353  161.2695 O.3     1  UNL1       -0.4220
     31 C         137.7103  143.1284  162.7567 C.3     1  UNL1        0.5087
     32 F         137.3186  144.4499  163.3485 F       1  UNL1       -0.1550
     33 F         138.1285  142.0000  163.6523 F       1  UNL1       -0.1550
@<TRIPOS>BOND
     1     7     6    1
     2     7     8    1
     3     9     8    1
     4     9    10    1
     5    10    11    1
     6    11    12    1
     7    12    13    1
     8    12    14    2
     9    14    15    1
    10    15     1    1
    11     1     2   ar
    12     2     3   ar
    13     3    20    1
    14    20    21   am
    15    21    22    2
    16    21    24    1
    17    24    25   ar
    18    25    26   ar
    19    26    27   ar
    20    27    30    1
    21    30    31    1
    22    31    32    1
    23    31    33    1
    24    27    28   ar
    25    28    29   ar
    26     3     4   ar
    27     4     5   ar
    28    15    16    1
    29    16    17    1
    30    17     7    1
    31    15     9    1
    32     5     1   ar
    33    29    24   ar
    34    13    18    1
    35    13    19    1
    36    20    23    1
@<TRIPOS>MOLECULE
*****
 33 36 0 0 0
SMALL
GASTEIGER

@<TRIPOS>ATOM
      1 C         141.9774  143.1308  163.2616 C.ar    1  UNL1        0.1122
      2 N         142.5011  142.4315  162.0423 N.ar    1  UNL1       -0.2259
      3 C         143.8369  143.0251  161.7052 C.ar    1  UNL1        0.1412
      4 C         144.1387  144.0913  162.7163 C.ar    1  UNL1        0.0710
      5 S         142.9895  144.1566  163.6782 S.2     1  UNL1       -0.0670
      6 C         140.5005  139.9532  167.3813 C.3     1  UNL1        0.0320
      7 C         140.5574  140.9198  166.2357 C.3     1  UNL1        0.1155
      8 C         139.3079  141.6087  165.7729 C.3     1  UNL1        0.0328
      9 C         139.3647  142.5753  164.6273 C.3     1  UNL1        0.0426
     10 C         138.1152  143.2643  164.1645 C.3     1  UNL1        0.0673
     11 S         138.1720  144.2309  163.0189 S.3     1  UNL1       -0.0807
     12 C         139.4785  144.5086  162.3361 C.2     1  UNL1        0.1483
     13 N         139.5353  145.4752  161.1905 N.pl3   1  UNL1       -0.3380
     14 N         140.7279  143.8197  162.7988 N.2     1  UNL1       -0.2464
     15 C         140.6711  142.8531  163.9444 C.3     1  UNL1        0.1549
     16 C         141.9205  142.1642  164.4072 C.3     1  UNL1        0.1705
     17 O         141.8637  141.1976  165.5528 O.3     1  UNL1       -0.3538
     18 H         138.7152  145.9273  160.8867 H       1  UNL1        0.1442
     19 H         140.3927  145.6575  160.7423 H       1  UNL1        0.1442
     20 N         144.7163  142.6232  160.5585 N.am    1  UNL1       -0.2641
     21 C         144.3245  142.9742  159.1539 C.2     1  UNL1        0.2683
     22 O         143.0530  143.7273  158.8959 O.2     1  UNL1       -0.2681
     23 H         145.5507  142.1289  160.7278 H       1  UNL1        0.1566
     24 C         145.2039  142.5723  158.0072 C.ar    1  UNL1        0.1350
     25 C         146.6356  143.0183  157.9678 C.ar    1  UNL1        0.0269
     26 C         147.5150  142.6163  156.8211 C.ar    1  UNL1        0.0404
     27 C         146.9629  141.7684  155.7138 C.ar    1  UNL1        0.1634
     28 C         145.5313  141.3224  155.7532 C.ar    1  UNL1        0.1359
     29 N         144.6518  141.7243  156.8999 N.ar    1  UNL1       -0.2361
     30 O         147.8424  141.3664  154.5671 O.3     1  UNL1       -0.4220
     31 C         149.2249  141.9356  154.4468 C.3     1  UNL1        0.5087
     32 F         149.5157  142.9885  153.4189 F       1  UNL1       -0.1550
     33 F         150.3167  141.4519  155.3546 F       1  UNL1       -0.1550
@<TRIPOS>BOND
     1     7     6    1
     2     7     8    1
     3     9     8    1
     4     9    10    1
     5    10    11    1
     6    11    12    1
     7    12    13    1
     8    12    14    2
     9    14    15    1
    10    15     1    1
    11     1     2   ar
    12     2     3   ar
    13     3    20    1
    14    20    21   am
    15    21    22    2
    16    21    24    1
    17    24    25   ar
    18    25    26   ar
    19    26    27   ar
    20    27    30    1
    21    30    31    1
    22    31    32    1
    23    31    33    1
    24    27    28   ar
    25    28    29   ar
    26     3     4   ar
    27     4     5   ar
    28    15    16    1
    29    16    17    1
    30    17     7    1
    31    15     9    1
    32     5     1   ar
    33    29    24   ar
    34    13    18    1
    35    13    19    1
    36    20    23    1
@<TRIPOS>MOLECULE
*****
 33 36 0 0 0
SMALL
GASTEIGER

@<TRIPOS>ATOM
      1 C         142.1882  139.9031  165.3619 C.ar    1  UNL1        0.1122
      2 N         142.3415  140.6565  164.0740 N.ar    1  UNL1       -0.2259
      3 C         143.6094  140.1977  163.4165 C.ar    1  UNL1        0.1412
      4 C         144.2397  139.1606  164.2983 C.ar    1  UNL1        0.0710
      5 S         143.3614  138.9785  165.5005 S.2     1  UNL1       -0.0670
      6 C         141.5257  142.7184  169.9319 C.3     1  UNL1        0.0320
      7 C         141.3705  141.8284  168.7345 C.3     1  UNL1        0.1155
      8 C         140.0870  141.0839  168.5147 C.3     1  UNL1        0.0328
      9 C         139.9317  140.1940  167.3172 C.3     1  UNL1        0.0426
     10 C         138.6482  139.4495  167.0975 C.3     1  UNL1        0.0673
     11 S         138.4929  138.5595  165.9000 S.3     1  UNL1       -0.0807
     12 C         139.6213  138.4141  164.9223 C.2     1  UNL1        0.1483
     13 N         139.4660  137.5241  163.7249 N.pl3   1  UNL1       -0.3380
     14 N         140.9047  139.1586  165.1421 N.2     1  UNL1       -0.2464
     15 C         141.0600  140.0485  166.3396 C.3     1  UNL1        0.1549
     16 C         142.3435  140.7930  166.5594 C.3     1  UNL1        0.1705
     17 O         142.4987  141.6830  167.7568 O.3     1  UNL1       -0.3538
     18 H         138.6236  137.0355  163.5806 H       1  UNL1        0.1442
     19 H         140.2065  137.4286  163.0832 H       1  UNL1        0.1442
     20 N         144.1517  140.6895  162.1074 N.am    1  UNL1       -0.2641
     21 C         143.4763  140.3060  160.8242 C.2     1  UNL1        0.2683
     22 O         142.2585  139.4305  160.8502 O.2     1  UNL1       -0.2681
     23 H         144.9510  141.2641  162.0904 H       1  UNL1        0.1566
     24 C         144.0187  140.7978  159.5151 C.ar    1  UNL1        0.1350
     25 C         144.5525  142.1951  159.4018 C.ar    1  UNL1        0.0269
     26 C         145.0949  142.6869  158.0926 C.ar    1  UNL1        0.0404
     27 C         145.1034  141.7816  156.8967 C.ar    1  UNL1        0.1634
     28 C         144.5695  140.3844  157.0100 C.ar    1  UNL1        0.1359
     29 N         144.0272  139.8926  158.3191 N.ar    1  UNL1       -0.2361
     30 O         145.6457  142.2735  155.5876 O.3     1  UNL1       -0.4220
     31 C         147.0503  142.7931  155.5054 C.3     1  UNL1        0.5087
     32 F         147.3633  143.9745  154.6357 F       1  UNL1       -0.1550
     33 F         148.1421  142.1314  156.2929 F       1  UNL1       -0.1550
@<TRIPOS>BOND
     1     7     6    1
     2     7     8    1
     3     9     8    1
     4     9    10    1
     5    10    11    1
     6    11    12    1
     7    12    13    1
     8    12    14    2
     9    14    15    1
    10    15     1    1
    11     1     2   ar
    12     2     3   ar
    13     3    20    1
    14    20    21   am
    15    21    22    2
    16    21    24    1
    17    24    25   ar
    18    25    26   ar
    19    26    27   ar
    20    27    30    1
    21    30    31    1
    22    31    32    1
    23    31    33    1
    24    27    28   ar
    25    28    29   ar
    26     3     4   ar
    27     4     5   ar
    28    15    16    1
    29    16    17    1
    30    17     7    1
    31    15     9    1
    32     5     1   ar
    33    29    24   ar
    34    13    18    1
    35    13    19    1
    36    20    23    1
