@<TRIPOS>MOLECULE
*****
 35 39 0 0 0
SMALL
GASTEIGER

@<TRIPOS>ATOM
      1 C         137.5576  141.8076  162.6437 C.3     1  UNL1        0.0730
      2 N         138.1929  140.5413  163.1367 N.3     1  UNL1       -0.2726
      3 C         138.0331  139.1797  162.5279 C.3     1  UNL1        0.0721
      4 C         138.8409  138.2113  163.3401 C.3     1  UNL1        0.0190
      5 C         139.4999  138.9743  164.4507 C.3     1  UNL1        0.0201
      6 C         140.2005  137.7947  165.0572 C.3     1  UNL1        0.0061
      7 C         140.3602  139.1563  165.6659 C.3     1  UNL1        0.0237
      8 C         139.0993  140.4143  164.3251 C.3     1  UNL1        0.0724
      9 C         140.9491  140.0475  166.7190 C.ar    1  UNL1       -0.0225
     10 C         140.0944  140.5388  167.8495 C.ar    1  UNL1       -0.0043
     11 C         140.6834  141.4300  168.9026 C.ar    1  UNL1        0.0035
     12 C         142.1270  141.8299  168.8250 C.ar    1  UNL1        0.0714
     13 C         142.9817  141.3385  167.6945 C.ar    1  UNL1        0.0035
     14 C         142.3928  140.4474  166.6415 C.ar    1  UNL1       -0.0043
     15 C         142.7159  142.7211  169.8781 C.3     1  UNL1        0.4186
     16 F         143.3049  143.6123  170.9312 F       1  UNL1       -0.1659
     17 F         141.4890  143.5828  169.8350 F       1  UNL1       -0.1659
     18 F         143.9429  141.8593  169.9212 F       1  UNL1       -0.1659
     19 C         137.4830  143.0077  163.5404 C.3     1  UNL1        0.0294
     20 C         137.6974  144.3806  162.9755 C.3     1  UNL1        0.0666
     21 S         139.0870  144.8606  162.6781 S.3     1  UNL1       -0.0756
     22 C         141.9586  142.2556  162.4934 C.ar    1  UNL1        0.1713
     23 N         141.6625  142.4645  161.0377 N.ar    1  UNL1       -0.1281
     24 N         140.5509  143.4658  160.9298 N.ar    1  UNL1       -0.1221
     25 C         140.1598  143.8757  162.3187 C.ar    1  UNL1        0.1932
     26 N         141.0297  143.1278  163.2850 N.ar    1  UNL1       -0.2883
     27 C         140.9797  143.2335  164.7805 C.3     1  UNL1        0.1340
     28 C         144.2313  141.9025  163.7015 C.ar    1  UNL1        0.2279
     29 N         145.2732  140.9829  164.2663 N.ar    1  UNL1       -0.2101
     30 C         145.0841  139.4970  164.1877 C.ar    1  UNL1        0.1021
     31 C         143.8531  138.9305  163.5442 C.ar    1  UNL1        0.0210
     32 C         142.8113  139.8501  162.9795 C.ar    1  UNL1        0.0093
     33 C         143.0004  141.3360  163.0581 C.ar    1  UNL1        0.0891
     34 C         144.4623  144.0694  165.1160 C.3     1  UNL1        0.2542
     35 O         144.4204  143.3884  163.7802 O.3     1  UNL1       -0.4561
@<TRIPOS>BOND
     1    34    35    1
     2    35    28    1
     3    28    29   ar
     4    29    30   ar
     5    30    31   ar
     6    31    32   ar
     7    32    33   ar
     8    33    22    1
     9    22    23   ar
    10    23    24   ar
    11    24    25   ar
    12    25    21    1
    13    21    20    1
    14    20    19    1
    15    19     1    1
    16     1     2    1
    17     2     3    1
    18     3     4    1
    19     5     4    1
    20     5     6    1
    21     6     7    1
    22     7     9    1
    23     9    10   ar
    24    10    11   ar
    25    11    12   ar
    26    12    15    1
    27    15    16    1
    28    15    17    1
    29    15    18    1
    30    12    13   ar
    31    13    14   ar
    32     5     8    1
    33    25    26   ar
    34    26    27    1
    35    33    28   ar
    36    26    22   ar
    37     8     2    1
    38     7     5    1
    39    14     9   ar
@<TRIPOS>MOLECULE
*****
 35 39 0 0 0
SMALL
GASTEIGER

@<TRIPOS>ATOM
      1 C         142.4095  145.0392  162.4603 C.3     1  UNL1        0.0730
      2 N         143.3114  143.8676  162.7130 N.3     1  UNL1       -0.2726
      3 C         144.4929  143.4686  161.8794 C.3     1  UNL1        0.0721
      4 C         145.1018  142.2437  162.4948 C.3     1  UNL1        0.0190
      5 C         144.2967  141.8857  163.7088 C.3     1  UNL1        0.0201
      6 C         145.1095  140.6830  164.0869 C.3     1  UNL1        0.0061
      7 C         143.9281  141.0821  164.9205 C.3     1  UNL1        0.0237
      8 C         143.1902  142.8893  163.8436 C.3     1  UNL1        0.0724
      9 C         143.0331  140.8485  166.1014 C.ar    1  UNL1       -0.0225
     10 C         142.1916  139.6088  166.1711 C.ar    1  UNL1       -0.0043
     11 C         141.2966  139.3752  167.3520 C.ar    1  UNL1        0.0035
     12 C         141.2432  140.3814  168.4631 C.ar    1  UNL1        0.0714
     13 C         142.0847  141.6212  168.3934 C.ar    1  UNL1        0.0035
     14 C         142.9797  141.8547  167.2125 C.ar    1  UNL1       -0.0043
     15 C         140.3482  140.1479  169.6440 C.3     1  UNL1        0.4186
     16 F         139.4532  139.9143  170.8249 F       1  UNL1       -0.1659
     17 F         141.5455  139.8228  170.4871 F       1  UNL1       -0.1659
     18 F         139.1509  140.4730  168.8009 F       1  UNL1       -0.1659
     19 C         141.3364  144.9482  161.4162 C.3     1  UNL1        0.0294
     20 C         139.9957  145.5746  161.6618 C.3     1  UNL1        0.0666
     21 S         139.1353  145.0868  162.7894 S.3     1  UNL1       -0.0756
     22 C         138.3478  141.3408  163.4323 C.ar    1  UNL1        0.1713
     23 N         137.4896  141.6158  162.2331 N.ar    1  UNL1       -0.1281
     24 N         137.6802  143.0525  161.8464 N.ar    1  UNL1       -0.1221
     25 C         138.6561  143.6655  162.8065 C.ar    1  UNL1        0.1932
     26 N         139.0687  142.6077  163.7867 N.ar    1  UNL1       -0.2883
     27 C         140.0329  142.7854  164.9219 C.3     1  UNL1        0.1340
     28 C         139.0898  138.8513  163.4647 C.ar    1  UNL1        0.2279
     29 N         139.2066  137.5397  164.1832 N.ar    1  UNL1       -0.2101
     30 C         138.6980  137.4064  165.5881 C.ar    1  UNL1        0.1021
     31 C         138.0726  138.5845  166.2744 C.ar    1  UNL1        0.0210
     32 C         137.9559  139.8960  165.5558 C.ar    1  UNL1        0.0093
     33 C         138.4645  140.0293  164.1509 C.ar    1  UNL1        0.0891
     34 C         139.0300  138.1229  160.9715 C.3     1  UNL1        0.2542
     35 O         139.5984  138.9846  162.0599 O.3     1  UNL1       -0.4561
@<TRIPOS>BOND
     1    34    35    1
     2    35    28    1
     3    28    29   ar
     4    29    30   ar
     5    30    31   ar
     6    31    32   ar
     7    32    33   ar
     8    33    22    1
     9    22    23   ar
    10    23    24   ar
    11    24    25   ar
    12    25    21    1
    13    21    20    1
    14    20    19    1
    15    19     1    1
    16     1     2    1
    17     2     3    1
    18     3     4    1
    19     5     4    1
    20     5     6    1
    21     6     7    1
    22     7     9    1
    23     9    10   ar
    24    10    11   ar
    25    11    12   ar
    26    12    15    1
    27    15    16    1
    28    15    17    1
    29    15    18    1
    30    12    13   ar
    31    13    14   ar
    32     5     8    1
    33    25    26   ar
    34    26    27    1
    35    33    28   ar
    36    26    22   ar
    37     8     2    1
    38     7     5    1
    39    14     9   ar
@<TRIPOS>MOLECULE
*****
 35 39 0 0 0
SMALL
GASTEIGER

@<TRIPOS>ATOM
      1 C         140.4262  143.3450  159.4446 C.3     1  UNL1        0.0730
      2 N         140.2441  144.0457  160.7584 N.3     1  UNL1       -0.2726
      3 C         140.4238  145.5140  161.0068 C.3     1  UNL1        0.0721
      4 C         140.1410  145.7768  162.4563 C.3     1  UNL1        0.0190
      5 C         139.7864  144.4710  163.1036 C.3     1  UNL1        0.0201
      6 C         139.5682  145.0313  164.4778 C.3     1  UNL1        0.0061
      7 C         139.3884  143.5630  164.2293 C.3     1  UNL1        0.0237
      8 C         139.8501  143.4010  162.0542 C.3     1  UNL1        0.0724
      9 C         139.0548  142.1910  164.7357 C.ar    1  UNL1       -0.0225
     10 C         138.1037  141.3197  163.9701 C.ar    1  UNL1       -0.0043
     11 C         137.7701  139.9477  164.4765 C.ar    1  UNL1        0.0035
     12 C         138.3876  139.4472  165.7486 C.ar    1  UNL1        0.0714
     13 C         139.3387  140.3185  166.5142 C.ar    1  UNL1        0.0035
     14 C         139.6723  141.6905  166.0078 C.ar    1  UNL1       -0.0043
     15 C         138.0540  138.0752  166.2550 C.3     1  UNL1        0.4186
     16 F         137.7204  136.7032  166.7614 F       1  UNL1       -0.1659
     17 F         137.2902  138.6816  167.3946 F       1  UNL1       -0.1659
     18 F         138.8178  137.4688  165.1153 F       1  UNL1       -0.1659
     19 C         141.4177  142.2261  159.3226 C.3     1  UNL1        0.0294
     20 C         142.8449  142.4404  159.7317 C.3     1  UNL1        0.0666
     21 S         143.6239  141.3186  160.3518 S.3     1  UNL1       -0.0756
     22 C         143.9830  141.3194  164.2167 C.ar    1  UNL1        0.1713
     23 N         145.3646  141.7258  163.7970 N.ar    1  UNL1       -0.1281
     24 N         145.3982  141.7750  162.2982 N.ar    1  UNL1       -0.1221
     25 C         144.0374  141.3990  161.7915 C.ar    1  UNL1        0.1932
     26 N         143.1627  141.1174  162.9771 N.ar    1  UNL1       -0.2883
     27 C         141.7209  140.7061  162.9312 C.3     1  UNL1        0.1340
     28 C         143.1822  139.7758  166.1469 C.ar    1  UNL1        0.2279
     29 N         142.7047  139.6018  167.5582 N.ar    1  UNL1       -0.2101
     30 C         142.5505  140.7977  168.4505 C.ar    1  UNL1        0.1021
     31 C         142.8738  142.1675  167.9316 C.ar    1  UNL1        0.0210
     32 C         143.3513  142.3413  166.5203 C.ar    1  UNL1        0.0093
     33 C         143.5055  141.1455  165.6280 C.ar    1  UNL1        0.0891
     34 C         142.1282  137.7958  164.8360 C.3     1  UNL1        0.2542
     35 O         143.3364  138.5800  165.2546 O.3     1  UNL1       -0.4561
@<TRIPOS>BOND
     1    34    35    1
     2    35    28    1
     3    28    29   ar
     4    29    30   ar
     5    30    31   ar
     6    31    32   ar
     7    32    33   ar
     8    33    22    1
     9    22    23   ar
    10    23    24   ar
    11    24    25   ar
    12    25    21    1
    13    21    20    1
    14    20    19    1
    15    19     1    1
    16     1     2    1
    17     2     3    1
    18     3     4    1
    19     5     4    1
    20     5     6    1
    21     6     7    1
    22     7     9    1
    23     9    10   ar
    24    10    11   ar
    25    11    12   ar
    26    12    15    1
    27    15    16    1
    28    15    17    1
    29    15    18    1
    30    12    13   ar
    31    13    14   ar
    32     5     8    1
    33    25    26   ar
    34    26    27    1
    35    33    28   ar
    36    26    22   ar
    37     8     2    1
    38     7     5    1
    39    14     9   ar
@<TRIPOS>MOLECULE
*****
 35 39 0 0 0
SMALL
GASTEIGER

@<TRIPOS>ATOM
      1 C         144.2960  143.9598  162.6549 C.3     1  UNL1        0.0730
      2 N         144.3026  142.5678  163.2139 N.3     1  UNL1       -0.2726
      3 C         144.9785  141.3759  162.6036 C.3     1  UNL1        0.0721
      4 C         144.7281  140.1949  163.4939 C.3     1  UNL1        0.0190
      5 C         143.8976  140.6570  164.6544 C.3     1  UNL1        0.0201
      6 C         143.8173  139.3210  165.3316 C.3     1  UNL1        0.0061
      7 C         143.1415  140.5130  165.9419 C.3     1  UNL1        0.0237
      8 C         143.6346  142.1236  164.4813 C.3     1  UNL1        0.0724
      9 C         142.3148  141.1180  167.0375 C.ar    1  UNL1       -0.0225
     10 C         140.8473  140.8190  167.1222 C.ar    1  UNL1       -0.0043
     11 C         140.0206  141.4240  168.2178 C.ar    1  UNL1        0.0035
     12 C         140.6614  142.3281  169.2288 C.ar    1  UNL1        0.0714
     13 C         142.1289  142.6271  169.1441 C.ar    1  UNL1        0.0035
     14 C         142.9556  142.0221  168.0485 C.ar    1  UNL1       -0.0043
     15 C         139.8347  142.9332  170.3244 C.3     1  UNL1        0.4186
     16 F         139.0080  143.5383  171.4201 F       1  UNL1       -0.1659
     17 F         139.0635  141.6527  170.4496 F       1  UNL1       -0.1659
     18 F         140.6059  144.2136  170.1992 F       1  UNL1       -0.1659
     19 C         143.9022  145.1159  163.5257 C.3     1  UNL1        0.0294
     20 C         142.4741  145.5734  163.5645 C.3     1  UNL1        0.0666
     21 S         141.4546  144.9257  162.6751 S.3     1  UNL1       -0.0756
     22 C         139.5476  141.6507  163.5136 C.ar    1  UNL1        0.1713
     23 N         138.9725  142.5899  164.5321 N.ar    1  UNL1       -0.1281
     24 N         139.6169  143.9310  164.3419 N.ar    1  UNL1       -0.1221
     25 C         140.5902  143.8207  163.2060 C.ar    1  UNL1        0.1932
     26 N         140.5474  142.4114  162.6940 N.ar    1  UNL1       -0.2883
     27 C         141.3614  141.8597  161.5613 C.3     1  UNL1        0.1340
     28 C         138.2646  139.7866  162.2373 C.ar    1  UNL1        0.2279
     29 N         137.9032  138.3406  162.0681 N.ar    1  UNL1       -0.2101
     30 C         138.4635  137.3129  163.0060 C.ar    1  UNL1        0.1021
     31 C         139.3852  137.7310  164.1132 C.ar    1  UNL1        0.0210
     32 C         139.7465  139.1770  164.2824 C.ar    1  UNL1        0.0093
     33 C         139.1862  140.2047  163.3445 C.ar    1  UNL1        0.0891
     34 C         138.2313  140.9180  159.8988 C.3     1  UNL1        0.2542
     35 O         137.7043  140.8144  161.2994 O.3     1  UNL1       -0.4561
@<TRIPOS>BOND
     1    34    35    1
     2    35    28    1
     3    28    29   ar
     4    29    30   ar
     5    30    31   ar
     6    31    32   ar
     7    32    33   ar
     8    33    22    1
     9    22    23   ar
    10    23    24   ar
    11    24    25   ar
    12    25    21    1
    13    21    20    1
    14    20    19    1
    15    19     1    1
    16     1     2    1
    17     2     3    1
    18     3     4    1
    19     5     4    1
    20     5     6    1
    21     6     7    1
    22     7     9    1
    23     9    10   ar
    24    10    11   ar
    25    11    12   ar
    26    12    15    1
    27    15    16    1
    28    15    17    1
    29    15    18    1
    30    12    13   ar
    31    13    14   ar
    32     5     8    1
    33    25    26   ar
    34    26    27    1
    35    33    28   ar
    36    26    22   ar
    37     8     2    1
    38     7     5    1
    39    14     9   ar
@<TRIPOS>MOLECULE
*****
 35 39 0 0 0
SMALL
GASTEIGER

@<TRIPOS>ATOM
      1 C         143.4652  138.3410  162.3834 C.3     1  UNL1        0.0730
      2 N         142.1399  138.2517  163.0803 N.3     1  UNL1       -0.2726
      3 C         140.9451  137.4782  162.6069 C.3     1  UNL1        0.0721
      4 C         139.8436  137.6688  163.6071 C.3     1  UNL1        0.0190
      5 C         140.3576  138.5601  164.6986 C.3     1  UNL1        0.0201
      6 C         139.0934  138.5645  165.5059 C.3     1  UNL1        0.0061
      7 C         140.2882  139.3380  165.9793 C.3     1  UNL1        0.0237
      8 C         141.7768  138.9204  164.3731 C.3     1  UNL1        0.0724
      9 C         140.9379  140.2338  166.9919 C.ar    1  UNL1       -0.0225
     10 C         140.5083  141.6660  167.1117 C.ar    1  UNL1       -0.0043
     11 C         141.1581  142.5617  168.1243 C.ar    1  UNL1        0.0035
     12 C         142.2374  142.0252  169.0172 C.ar    1  UNL1        0.0714
     13 C         142.6670  140.5930  168.8975 C.ar    1  UNL1        0.0035
     14 C         142.0172  139.6973  167.8848 C.ar    1  UNL1       -0.0043
     15 C         142.8871  142.9209  170.0299 C.3     1  UNL1        0.4186
     16 F         143.5369  143.8167  171.0426 F       1  UNL1       -0.1659
     17 F         141.6276  143.7303  170.1222 F       1  UNL1       -0.1659
     18 F         144.1467  142.1116  169.9376 F       1  UNL1       -0.1659
     19 C         143.6772  137.6275  161.0811 C.3     1  UNL1        0.0294
     20 C         143.0551  138.1598  159.8242 C.3     1  UNL1        0.0666
     21 S         142.7119  139.6159  159.7156 S.3     1  UNL1       -0.0756
     22 C         139.7075  141.3480  161.4589 C.ar    1  UNL1        0.1713
     23 N         139.0001  140.4135  160.5227 N.ar    1  UNL1       -0.1281
     24 N         140.0394  139.6509  159.7558 N.ar    1  UNL1       -0.1221
     25 C         141.3892  140.1141  160.2179 C.ar    1  UNL1        0.1932
     26 N         141.1841  141.1629  161.2705 N.ar    1  UNL1       -0.2883
     27 C         142.2657  141.8977  162.0056 C.3     1  UNL1        0.1340
     28 C         138.9453  143.7557  162.0687 C.ar    1  UNL1        0.2279
     29 N         138.2910  144.7080  163.0252 N.ar    1  UNL1       -0.2101
     30 C         137.7446  144.2050  164.3285 C.ar    1  UNL1        0.1021
     31 C         137.8525  142.7495  164.6752 C.ar    1  UNL1        0.0210
     32 C         138.5068  141.7972  163.7187 C.ar    1  UNL1        0.0093
     33 C         139.0532  142.3003  162.4155 C.ar    1  UNL1        0.0891
     34 C         140.3552  145.4849  160.7376 C.3     1  UNL1        0.2542
     35 O         139.4916  144.2587  160.7655 O.3     1  UNL1       -0.4561
@<TRIPOS>BOND
     1    34    35    1
     2    35    28    1
     3    28    29   ar
     4    29    30   ar
     5    30    31   ar
     6    31    32   ar
     7    32    33   ar
     8    33    22    1
     9    22    23   ar
    10    23    24   ar
    11    24    25   ar
    12    25    21    1
    13    21    20    1
    14    20    19    1
    15    19     1    1
    16     1     2    1
    17     2     3    1
    18     3     4    1
    19     5     4    1
    20     5     6    1
    21     6     7    1
    22     7     9    1
    23     9    10   ar
    24    10    11   ar
    25    11    12   ar
    26    12    15    1
    27    15    16    1
    28    15    17    1
    29    15    18    1
    30    12    13   ar
    31    13    14   ar
    32     5     8    1
    33    25    26   ar
    34    26    27    1
    35    33    28   ar
    36    26    22   ar
    37     8     2    1
    38     7     5    1
    39    14     9   ar
@<TRIPOS>MOLECULE
*****
 35 39 0 0 0
SMALL
GASTEIGER

@<TRIPOS>ATOM
      1 C         140.5529  137.9266  161.6641 C.3     1  UNL1        0.0730
      2 N         141.8794  138.3442  162.2264 N.3     1  UNL1       -0.2726
      3 C         143.2196  138.0989  161.5989 C.3     1  UNL1        0.0721
      4 C         144.2670  138.6835  162.4996 C.3     1  UNL1        0.0190
      5 C         143.5741  139.2901  163.6836 C.3     1  UNL1        0.0201
      6 C         144.8209  139.7688  164.3666 C.3     1  UNL1        0.0061
      7 C         143.4807  140.0142  164.9940 C.3     1  UNL1        0.0237
      8 C         142.0985  139.0804  163.5148 C.3     1  UNL1        0.0724
      9 C         142.6529  140.5738  166.1128 C.ar    1  UNL1       -0.0225
     10 C         142.3855  139.7459  167.3346 C.ar    1  UNL1       -0.0043
     11 C         141.5577  140.3055  168.4534 C.ar    1  UNL1        0.0035
     12 C         140.9975  141.6931  168.3502 C.ar    1  UNL1        0.0714
     13 C         141.2650  142.5211  167.1284 C.ar    1  UNL1        0.0035
     14 C         142.0927  141.9614  166.0096 C.ar    1  UNL1       -0.0043
     15 C         140.1697  142.2528  169.4690 C.3     1  UNL1        0.4186
     16 F         139.3420  142.8125  170.5878 F       1  UNL1       -0.1659
     17 F         139.3053  141.0272  169.4425 F       1  UNL1       -0.1659
     18 F         141.0342  143.4784  169.4955 F       1  UNL1       -0.1659
     19 C         139.3297  137.9496  162.5319 C.3     1  UNL1        0.0294
     20 C         138.0017  138.3289  161.9466 C.3     1  UNL1        0.0666
     21 S         137.7216  139.7577  161.5859 S.3     1  UNL1       -0.0756
     22 C         140.6564  142.2875  161.8161 C.ar    1  UNL1        0.1713
     23 N         140.5531  142.0976  160.3317 N.ar    1  UNL1       -0.1281
     24 N         139.4412  141.1268  160.0648 N.ar    1  UNL1       -0.1221
     25 C         138.8572  140.7167  161.3843 C.ar    1  UNL1        0.1932
     26 N         139.6083  141.4340  162.4666 N.ar    1  UNL1       -0.2883
     27 C         139.3556  141.3182  163.9406 C.3     1  UNL1        0.1340
     28 C         141.1590  144.4210  163.2107 C.ar    1  UNL1        0.2279
     29 N         142.1384  145.3086  163.9201 N.ar    1  UNL1       -0.2101
     30 C         143.5947  144.9499  163.9440 C.ar    1  UNL1        0.1021
     31 C         144.0716  143.7037  163.2586 C.ar    1  UNL1        0.0210
     32 C         143.0922  142.8163  162.5493 C.ar    1  UNL1        0.0093
     33 C         141.6359  143.1749  162.5254 C.ar    1  UNL1        0.0891
     34 C         138.9235  144.8379  164.4672 C.3     1  UNL1        0.2542
     35 O         139.7027  144.7797  163.1868 O.3     1  UNL1       -0.4561
@<TRIPOS>BOND
     1    34    35    1
     2    35    28    1
     3    28    29   ar
     4    29    30   ar
     5    30    31   ar
     6    31    32   ar
     7    32    33   ar
     8    33    22    1
     9    22    23   ar
    10    23    24   ar
    11    24    25   ar
    12    25    21    1
    13    21    20    1
    14    20    19    1
    15    19     1    1
    16     1     2    1
    17     2     3    1
    18     3     4    1
    19     5     4    1
    20     5     6    1
    21     6     7    1
    22     7     9    1
    23     9    10   ar
    24    10    11   ar
    25    11    12   ar
    26    12    15    1
    27    15    16    1
    28    15    17    1
    29    15    18    1
    30    12    13   ar
    31    13    14   ar
    32     5     8    1
    33    25    26   ar
    34    26    27    1
    35    33    28   ar
    36    26    22   ar
    37     8     2    1
    38     7     5    1
    39    14     9   ar
@<TRIPOS>MOLECULE
*****
 35 39 0 0 0
SMALL
GASTEIGER

@<TRIPOS>ATOM
      1 C         138.5400  138.1278  162.8607 C.3     1  UNL1        0.0730
      2 N         139.9430  138.1402  163.3910 N.3     1  UNL1       -0.2726
      3 C         141.1230  137.4450  162.7792 C.3     1  UNL1        0.0721
      4 C         142.3216  137.7251  163.6364 C.3     1  UNL1        0.0190
      5 C         141.8825  138.5933  164.7781 C.3     1  UNL1        0.0201
      6 C         143.2319  138.6963  165.4249 C.3     1  UNL1        0.0061
      7 C         142.0519  139.3915  166.0367 C.3     1  UNL1        0.0237
      8 C         140.4124  138.8498  164.6264 C.3     1  UNL1        0.0724
      9 C         141.4684  140.2536  167.1166 C.ar    1  UNL1       -0.0225
     10 C         140.2884  139.7704  167.9067 C.ar    1  UNL1       -0.0043
     11 C         139.7050  140.6325  168.9866 C.ar    1  UNL1        0.0035
     12 C         140.3015  141.9779  169.2765 C.ar    1  UNL1        0.0714
     13 C         141.4815  142.4611  168.4865 C.ar    1  UNL1        0.0035
     14 C         142.0650  141.5990  167.4065 C.ar    1  UNL1       -0.0043
     15 C         139.7181  142.8400  170.3564 C.3     1  UNL1        0.4186
     16 F         139.1346  143.7023  171.4364 F       1  UNL1       -0.1659
     17 F         138.6350  141.8267  170.5802 F       1  UNL1       -0.1659
     18 F         140.8012  143.8534  170.1326 F       1  UNL1       -0.1659
     19 C         138.2947  138.2460  161.3856 C.3     1  UNL1        0.0294
     20 C         137.3912  139.3215  160.8592 C.3     1  UNL1        0.0666
     21 S         137.9660  140.4747  160.0915 S.3     1  UNL1       -0.0756
     22 C         140.1662  143.0459  161.9925 C.ar    1  UNL1        0.1713
     23 N         138.8642  143.7858  161.9066 N.ar    1  UNL1       -0.1281
     24 N         137.8816  142.9127  161.1841 N.ar    1  UNL1       -0.1221
     25 C         138.5762  141.6332  160.8233 C.ar    1  UNL1        0.1932
     26 N         139.9882  141.7154  161.3229 N.ar    1  UNL1       -0.2883
     27 C         141.0379  140.6537  161.1784 C.3     1  UNL1        0.1340
     28 C         142.4338  144.3021  161.8201 C.ar    1  UNL1        0.2279
     29 N         143.6927  144.8045  162.4626 N.ar    1  UNL1       -0.2101
     30 C         143.9429  144.5528  163.9200 C.ar    1  UNL1        0.1021
     31 C         142.9342  143.7989  164.7350 C.ar    1  UNL1        0.0210
     32 C         141.6753  143.2966  164.0925 C.ar    1  UNL1        0.0093
     33 C         141.4251  143.5482  162.6350 C.ar    1  UNL1        0.0891
     34 C         142.6591  143.5662  159.3387 C.3     1  UNL1        0.2542
     35 O         142.1836  144.5537  160.3627 O.3     1  UNL1       -0.4561
@<TRIPOS>BOND
     1    34    35    1
     2    35    28    1
     3    28    29   ar
     4    29    30   ar
     5    30    31   ar
     6    31    32   ar
     7    32    33   ar
     8    33    22    1
     9    22    23   ar
    10    23    24   ar
    11    24    25   ar
    12    25    21    1
    13    21    20    1
    14    20    19    1
    15    19     1    1
    16     1     2    1
    17     2     3    1
    18     3     4    1
    19     5     4    1
    20     5     6    1
    21     6     7    1
    22     7     9    1
    23     9    10   ar
    24    10    11   ar
    25    11    12   ar
    26    12    15    1
    27    15    16    1
    28    15    17    1
    29    15    18    1
    30    12    13   ar
    31    13    14   ar
    32     5     8    1
    33    25    26   ar
    34    26    27    1
    35    33    28   ar
    36    26    22   ar
    37     8     2    1
    38     7     5    1
    39    14     9   ar
@<TRIPOS>MOLECULE
*****
 35 39 0 0 0
SMALL
GASTEIGER

@<TRIPOS>ATOM
      1 C         137.4224  142.1760  162.7880 C.3     1  UNL1        0.0730
      2 N         137.9217  140.8041  163.1325 N.3     1  UNL1       -0.2726
      3 C         137.7735  139.5739  162.2871 C.3     1  UNL1        0.0721
      4 C         138.4170  138.4311  163.0150 C.3     1  UNL1        0.0190
      5 C         138.9628  138.9549  164.3102 C.3     1  UNL1        0.0201
      6 C         139.5164  137.6453  164.7882 C.3     1  UNL1        0.0061
      7 C         139.6645  138.8755  165.6336 C.3     1  UNL1        0.0237
      8 C         138.6567  140.4216  164.3828 C.3     1  UNL1        0.0724
      9 C         140.1552  139.5399  166.8857 C.ar    1  UNL1       -0.0225
     10 C         139.1859  139.9026  167.9716 C.ar    1  UNL1       -0.0043
     11 C         139.6765  140.5670  169.2237 C.ar    1  UNL1        0.0035
     12 C         141.1364  140.8687  169.3900 C.ar    1  UNL1        0.0714
     13 C         142.1057  140.5060  168.3041 C.ar    1  UNL1        0.0035
     14 C         141.6151  139.8416  167.0520 C.ar    1  UNL1       -0.0043
     15 C         141.6271  141.5331  170.6421 C.3     1  UNL1        0.4186
     16 F         142.1178  142.1975  171.8943 F       1  UNL1       -0.1659
     17 F         140.9233  142.7974  170.2470 F       1  UNL1       -0.1659
     18 F         142.3309  140.2687  171.0372 F       1  UNL1       -0.1659
     19 C         137.7213  143.3326  163.6952 C.3     1  UNL1        0.0294
     20 C         138.3327  144.5841  163.1384 C.3     1  UNL1        0.0666
     21 S         139.8229  144.7549  163.1380 S.3     1  UNL1       -0.0756
     22 C         141.9494  141.5151  162.9190 C.ar    1  UNL1        0.1713
     23 N         142.2225  141.9464  164.3295 N.ar    1  UNL1       -0.1281
     24 N         141.4592  143.2125  164.5832 N.ar    1  UNL1       -0.1221
     25 C         140.7143  143.5637  163.3295 C.ar    1  UNL1        0.1932
     26 N         141.0172  142.5147  162.3010 N.ar    1  UNL1       -0.2883
     27 C         140.4819  142.4727  160.9004 C.3     1  UNL1        0.1340
     28 C         143.8873  140.3364  161.6522 C.ar    1  UNL1        0.2279
     29 N         144.4479  139.1193  160.9781 N.ar    1  UNL1       -0.2101
     30 C         143.6311  137.8638  160.8969 C.ar    1  UNL1        0.1021
     31 C         142.2537  137.8254  161.4896 C.ar    1  UNL1        0.0210
     32 C         141.6931  139.0425  162.1637 C.ar    1  UNL1        0.0093
     33 C         142.5099  140.2980  162.2450 C.ar    1  UNL1        0.0891
     34 C         144.7260  142.5484  160.5783 C.3     1  UNL1        0.2542
     35 O         144.7041  141.5919  161.7335 O.3     1  UNL1       -0.4561
@<TRIPOS>BOND
     1    34    35    1
     2    35    28    1
     3    28    29   ar
     4    29    30   ar
     5    30    31   ar
     6    31    32   ar
     7    32    33   ar
     8    33    22    1
     9    22    23   ar
    10    23    24   ar
    11    24    25   ar
    12    25    21    1
    13    21    20    1
    14    20    19    1
    15    19     1    1
    16     1     2    1
    17     2     3    1
    18     3     4    1
    19     5     4    1
    20     5     6    1
    21     6     7    1
    22     7     9    1
    23     9    10   ar
    24    10    11   ar
    25    11    12   ar
    26    12    15    1
    27    15    16    1
    28    15    17    1
    29    15    18    1
    30    12    13   ar
    31    13    14   ar
    32     5     8    1
    33    25    26   ar
    34    26    27    1
    35    33    28   ar
    36    26    22   ar
    37     8     2    1
    38     7     5    1
    39    14     9   ar
@<TRIPOS>MOLECULE
*****
 35 39 0 0 0
SMALL
GASTEIGER

@<TRIPOS>ATOM
      1 C         140.0399  143.3532  159.0352 C.3     1  UNL1        0.0730
      2 N         140.0223  144.0589  160.3587 N.3     1  UNL1       -0.2726
      3 C         140.2887  145.5178  160.5836 C.3     1  UNL1        0.0721
      4 C         140.1662  145.7901  162.0535 C.3     1  UNL1        0.0190
      5 C         139.8241  144.4995  162.7372 C.3     1  UNL1        0.0201
      6 C         139.7708  145.0664  164.1249 C.3     1  UNL1        0.0061
      7 C         139.5044  143.6075  163.9000 C.3     1  UNL1        0.0237
      8 C         139.7351  143.4295  161.6896 C.3     1  UNL1        0.0724
      9 C         139.1660  142.2502  164.4415 C.ar    1  UNL1       -0.0225
     10 C         138.1198  141.4131  163.7671 C.ar    1  UNL1       -0.0043
     11 C         137.7815  140.0558  164.3085 C.ar    1  UNL1        0.0035
     12 C         138.4893  139.5356  165.5244 C.ar    1  UNL1        0.0714
     13 C         139.5355  140.3727  166.1988 C.ar    1  UNL1        0.0035
     14 C         139.8739  141.7300  165.6573 C.ar    1  UNL1       -0.0043
     15 C         138.1509  138.1783  166.0659 C.3     1  UNL1        0.4186
     16 F         137.8125  136.8209  166.6074 F       1  UNL1       -0.1659
     17 F         138.6749  137.5468  164.8103 F       1  UNL1       -0.1659
     18 F         137.6269  138.8098  167.3215 F       1  UNL1       -0.1659
     19 C         141.2012  142.4780  158.6672 C.3     1  UNL1        0.0294
     20 C         142.5046  143.0954  158.2549 C.3     1  UNL1        0.0666
     21 S         143.7992  142.4591  158.6663 S.3     1  UNL1       -0.0756
     22 C         143.5712  139.7658  161.4519 C.ar    1  UNL1        0.1713
     23 N         143.9856  138.9321  160.2757 N.ar    1  UNL1       -0.1281
     24 N         144.1214  139.8395  159.0891 N.ar    1  UNL1       -0.1221
     25 C         143.7910  141.2341  159.5319 C.ar    1  UNL1        0.1932
     26 N         143.4510  141.1886  160.9921 N.ar    1  UNL1       -0.2883
     27 C         143.0594  142.3601  161.8432 C.3     1  UNL1        0.1340
     28 C         144.3009  139.5692  163.9376 C.ar    1  UNL1        0.2279
     29 N         144.0508  139.0682  165.3292 N.ar    1  UNL1       -0.2101
     30 C         142.8209  138.2627  165.6265 C.ar    1  UNL1        0.1021
     31 C         141.8410  137.9582  164.5323 C.ar    1  UNL1        0.0210
     32 C         142.0911  138.4592  163.1408 C.ar    1  UNL1        0.0093
     33 C         143.3211  139.2647  162.8434 C.ar    1  UNL1        0.0891
     34 C         145.6189  141.8029  164.0904 C.3     1  UNL1        0.2542
     35 O         145.5308  140.3747  163.6403 O.3     1  UNL1       -0.4561
@<TRIPOS>BOND
     1    34    35    1
     2    35    28    1
     3    28    29   ar
     4    29    30   ar
     5    30    31   ar
     6    31    32   ar
     7    32    33   ar
     8    33    22    1
     9    22    23   ar
    10    23    24   ar
    11    24    25   ar
    12    25    21    1
    13    21    20    1
    14    20    19    1
    15    19     1    1
    16     1     2    1
    17     2     3    1
    18     3     4    1
    19     5     4    1
    20     5     6    1
    21     6     7    1
    22     7     9    1
    23     9    10   ar
    24    10    11   ar
    25    11    12   ar
    26    12    15    1
    27    15    16    1
    28    15    17    1
    29    15    18    1
    30    12    13   ar
    31    13    14   ar
    32     5     8    1
    33    25    26   ar
    34    26    27    1
    35    33    28   ar
    36    26    22   ar
    37     8     2    1
    38     7     5    1
    39    14     9   ar
