@<TRIPOS>MOLECULE
*****
 39 43 0 0 0
SMALL
GASTEIGER

@<TRIPOS>ATOM
      1 C         139.6326  141.7787  163.0827 C.ar    1  UNL1        0.1651
      2 N         140.6242  142.4640  163.9756 N.ar    1  UNL1       -0.2121
      3 C         140.7113  142.0901  165.4256 C.ar    1  UNL1        0.1318
      4 C         139.8070  141.0309  165.9827 C.ar    1  UNL1        0.0491
      5 C         139.8942  140.6570  167.4328 C.ar    1  UNL1        0.0041
      6 C         138.9899  139.5979  167.9899 C.ar    1  UNL1        0.0002
      7 C         137.9984  138.9126  167.0970 C.ar    1  UNL1        0.0015
      8 C         137.9112  139.2865  165.6469 C.ar    1  UNL1        0.0192
      9 C         138.8155  140.3457  165.0898 C.ar    1  UNL1        0.0856
     10 N         138.7283  140.7195  163.6398 N.ar    1  UNL1       -0.2264
     11 C         139.7683  143.9288  159.7497 C.ar    1  UNL1        0.0850
     12 C         139.3711  142.9003  158.7326 C.ar    1  UNL1        0.1147
     13 N         139.0611  141.4981  159.1655 N.ar    1  UNL1       -0.2409
     14 C         139.1483  141.1242  160.6155 C.ar    1  UNL1        0.1020
     15 C         139.5454  142.1526  161.6326 C.ar    1  UNL1        0.0563
     16 C         139.8555  143.5549  161.1998 C.ar    1  UNL1        0.0221
     17 N         140.0783  145.3311  159.3168 N.pl3   1  UNL1       -0.2041
     18 H         139.4880  146.0714  159.5866 H       1  UNL1        0.1748
     19 N         142.4968  145.8799  157.6288 N.3     1  UNL1       -0.1906
     20 S         141.2875  145.6055  158.4728 S.O2    1  UNL1        0.1068
     21 O         140.4102  146.1899  157.4057 O.2     1  UNL1       -0.1383
     22 O         142.1649  145.0211  159.5399 O.2     1  UNL1       -0.1383
     23 H         142.3635  145.4753  156.7020 H       1  UNL1        0.1456
     24 H         143.3186  145.4635  158.0666 H       1  UNL1        0.1456
     25 C         140.8857  141.3423  168.3257 C.ar    1  UNL1        0.0001
     26 C         140.5354  142.6505  168.9706 C.ar    1  UNL1        0.0000
     27 C         141.5270  143.3358  169.8635 C.ar    1  UNL1        0.0000
     28 C         142.8688  142.7129  170.1115 C.ar    1  UNL1        0.0000
     29 C         143.2190  141.4046  169.4666 C.ar    1  UNL1        0.0000
     30 C         142.2275  140.7194  168.5737 C.ar    1  UNL1        0.0000
     31 N         141.7028  142.7753  166.3186 N.pl3   1  UNL1       -0.3131
     32 H         141.4004  143.2069  167.1501 H       1  UNL1        0.1485
     33 C         143.1552  142.8030  165.9445 C.3     1  UNL1        0.1348
     34 C         143.7020  141.7882  164.9848 C.ar    1  UNL1        0.0788
     35 C         143.7248  140.3364  165.3608 C.ar    1  UNL1        0.0165
     36 C         144.2716  139.3215  164.4010 C.ar    1  UNL1        0.0029
     37 C         144.7956  139.7586  163.0652 C.ar    1  UNL1        0.0207
     38 C         144.7728  141.2106  162.6892 C.ar    1  UNL1        0.0985
     39 N         144.2261  142.2254  163.6490 N.ar    1  UNL1       -0.2464
@<TRIPOS>BOND
     1    19    20    1
     2    20    21    2
     3    20    22    2
     4    20    17    1
     5    17    11    1
     6    11    12   ar
     7    12    13   ar
     8    13    14   ar
     9    14    15   ar
    10    15     1    1
    11     1     2   ar
    12     2     3   ar
    13     3    31    1
    14    31    33    1
    15    33    34    1
    16    34    35   ar
    17    35    36   ar
    18    36    37   ar
    19    37    38   ar
    20    38    39   ar
    21     3     4   ar
    22     4     5   ar
    23     5    25    1
    24    25    26   ar
    25    26    27   ar
    26    27    28   ar
    27    28    29   ar
    28    29    30   ar
    29     5     6   ar
    30     6     7   ar
    31     7     8   ar
    32     8     9   ar
    33     9    10   ar
    34    15    16   ar
    35    16    11   ar
    36    10     1   ar
    37    39    34   ar
    38     9     4   ar
    39    30    25   ar
    40    19    23    1
    41    19    24    1
    42    17    18    1
    43    31    32    1
@<TRIPOS>MOLECULE
*****
 39 43 0 0 0
SMALL
GASTEIGER

@<TRIPOS>ATOM
      1 C         139.9167  143.0817  163.9003 C.ar    1  UNL1        0.1651
      2 N         140.7548  143.3087  165.1235 N.ar    1  UNL1       -0.2121
      3 C         140.6532  142.3680  166.2875 C.ar    1  UNL1        0.1318
      4 C         139.7134  141.2003  166.2282 C.ar    1  UNL1        0.0491
      5 C         139.6117  140.2596  167.3921 C.ar    1  UNL1        0.0041
      6 C         138.6720  139.0920  167.3329 C.ar    1  UNL1        0.0002
      7 C         137.8340  138.8651  166.1098 C.ar    1  UNL1        0.0015
      8 C         137.9356  139.8058  164.9459 C.ar    1  UNL1        0.0192
      9 C         138.8753  140.9734  165.0051 C.ar    1  UNL1        0.0856
     10 N         138.9770  141.9141  163.8411 N.ar    1  UNL1       -0.2264
     11 C         141.1750  144.7517  160.5272 C.ar    1  UNL1        0.0850
     12 C         140.2217  145.9037  160.4085 C.ar    1  UNL1        0.1147
     13 N         139.1669  146.1151  161.4537 N.ar    1  UNL1       -0.2409
     14 C         139.0652  145.1744  162.6176 C.ar    1  UNL1        0.1020
     15 C         140.0184  144.0224  162.7364 C.ar    1  UNL1        0.0563
     16 C         141.0734  143.8110  161.6911 C.ar    1  UNL1        0.0221
     17 N         142.2299  144.5403  159.4820 N.pl3   1  UNL1       -0.2041
     18 H         143.1464  144.2998  159.7492 H       1  UNL1        0.1748
     19 N         141.5470  144.8505  156.5773 N.3     1  UNL1       -0.1906
     20 S         141.8884  144.6954  158.0296 S.O2    1  UNL1        0.1068
     21 O         141.2538  143.3363  158.0337 O.2     1  UNL1       -0.1383
     22 O         142.5231  146.0545  158.0256 O.2     1  UNL1       -0.1383
     23 H         141.8973  144.0456  156.0578 H       1  UNL1        0.1456
     24 H         141.9771  145.7019  156.2159 H       1  UNL1        0.1456
     25 C         140.4498  140.4866  168.6153 C.ar    1  UNL1        0.0001
     26 C         139.9825  141.4350  169.6793 C.ar    1  UNL1        0.0000
     27 C         140.8206  141.6620  170.9025 C.ar    1  UNL1        0.0000
     28 C         142.1260  140.9405  171.0616 C.ar    1  UNL1        0.0000
     29 C         142.5933  139.9920  169.9976 C.ar    1  UNL1        0.0000
     30 C         141.7552  139.7651  168.7745 C.ar    1  UNL1        0.0000
     31 N         141.4912  142.5949  167.5106 N.pl3   1  UNL1       -0.3131
     32 H         141.0598  142.7187  168.3868 H       1  UNL1        0.1485
     33 C         142.9866  142.6332  167.3987 C.3     1  UNL1        0.1348
     34 C         143.6582  142.1408  166.1512 C.ar    1  UNL1        0.0788
     35 C         144.4159  143.0979  165.2795 C.ar    1  UNL1        0.0165
     36 C         145.0875  142.6055  164.0319 C.ar    1  UNL1        0.0029
     37 C         145.0015  141.1559  163.6560 C.ar    1  UNL1        0.0207
     38 C         144.2437  140.1987  164.5277 C.ar    1  UNL1        0.0985
     39 N         143.5721  140.6912  165.7753 N.ar    1  UNL1       -0.2464
@<TRIPOS>BOND
     1    19    20    1
     2    20    21    2
     3    20    22    2
     4    20    17    1
     5    17    11    1
     6    11    12   ar
     7    12    13   ar
     8    13    14   ar
     9    14    15   ar
    10    15     1    1
    11     1     2   ar
    12     2     3   ar
    13     3    31    1
    14    31    33    1
    15    33    34    1
    16    34    35   ar
    17    35    36   ar
    18    36    37   ar
    19    37    38   ar
    20    38    39   ar
    21     3     4   ar
    22     4     5   ar
    23     5    25    1
    24    25    26   ar
    25    26    27   ar
    26    27    28   ar
    27    28    29   ar
    28    29    30   ar
    29     5     6   ar
    30     6     7   ar
    31     7     8   ar
    32     8     9   ar
    33     9    10   ar
    34    15    16   ar
    35    16    11   ar
    36    10     1   ar
    37    39    34   ar
    38     9     4   ar
    39    30    25   ar
    40    19    23    1
    41    19    24    1
    42    17    18    1
    43    31    32    1
@<TRIPOS>MOLECULE
*****
 39 43 0 0 0
SMALL
GASTEIGER

@<TRIPOS>ATOM
      1 C         138.9417  142.5253  160.0719 C.ar    1  UNL1        0.1651
      2 N         140.3954  142.5071  160.4415 N.ar    1  UNL1       -0.2121
      3 C         140.8292  142.9676  161.8016 C.ar    1  UNL1        0.1318
      4 C         139.8094  143.4465  162.7919 C.ar    1  UNL1        0.0491
      5 C         140.2433  143.9070  164.1520 C.ar    1  UNL1        0.0041
      6 C         139.2235  144.3858  165.1423 C.ar    1  UNL1        0.0002
      7 C         137.7699  144.4040  164.7727 C.ar    1  UNL1        0.0015
      8 C         137.3361  143.9435  163.4127 C.ar    1  UNL1        0.0192
      9 C         138.3558  143.4647  162.4223 C.ar    1  UNL1        0.0856
     10 N         137.9219  143.0041  161.0623 N.ar    1  UNL1       -0.2264
     11 C         138.3411  142.4604  156.1495 C.ar    1  UNL1        0.0850
     12 C         137.6401  141.1437  155.9919 C.ar    1  UNL1        0.1147
     13 N         137.3730  140.2875  157.1942 N.ar    1  UNL1       -0.2409
     14 C         137.8068  140.7481  158.5542 C.ar    1  UNL1        0.1020
     15 C         138.5078  142.0648  158.7119 C.ar    1  UNL1        0.0563
     16 C         138.7750  142.9210  157.5095 C.ar    1  UNL1        0.0221
     17 N         138.6082  143.3166  154.9472 N.pl3   1  UNL1       -0.2041
     18 H         139.0410  142.9283  154.1527 H       1  UNL1        0.1748
     19 N         137.8236  146.2121  154.9633 N.3     1  UNL1       -0.1906
     20 S         138.2159  144.7643  154.9552 S.O2    1  UNL1        0.1068
     21 O         139.6587  145.1560  154.8324 O.2     1  UNL1       -0.1383
     22 O         136.7732  144.3727  155.0781 O.2     1  UNL1       -0.1383
     23 H         138.3539  146.7041  155.6824 H       1  UNL1        0.1456
     24 H         136.8263  146.2930  155.1612 H       1  UNL1        0.1456
     25 C         141.6969  143.8888  164.5216 C.ar    1  UNL1        0.0001
     26 C         142.2293  142.8106  165.4182 C.ar    1  UNL1        0.0000
     27 C         143.6830  142.7923  165.7879 C.ar    1  UNL1        0.0000
     28 C         144.6042  143.8523  165.2608 C.ar    1  UNL1        0.0000
     29 C         144.0718  144.9305  164.3642 C.ar    1  UNL1        0.0000
     30 C         142.6182  144.9488  163.9946 C.ar    1  UNL1        0.0000
     31 N         142.2828  142.9494  162.1712 N.pl3   1  UNL1       -0.3131
     32 H         142.6845  143.7239  162.6274 H       1  UNL1        0.1485
     33 C         143.1245  141.7512  161.8458 C.3     1  UNL1        0.1348
     34 C         143.4152  140.7290  162.9044 C.ar    1  UNL1        0.0788
     35 C         144.8253  140.5068  163.3652 C.ar    1  UNL1        0.0165
     36 C         145.1161  139.4846  164.4238 C.ar    1  UNL1        0.0029
     37 C         143.9968  138.6846  165.0215 C.ar    1  UNL1        0.0207
     38 C         142.5867  138.9069  164.5607 C.ar    1  UNL1        0.0985
     39 N         142.2960  139.9291  163.5021 N.ar    1  UNL1       -0.2464
@<TRIPOS>BOND
     1    19    20    1
     2    20    21    2
     3    20    22    2
     4    20    17    1
     5    17    11    1
     6    11    12   ar
     7    12    13   ar
     8    13    14   ar
     9    14    15   ar
    10    15     1    1
    11     1     2   ar
    12     2     3   ar
    13     3    31    1
    14    31    33    1
    15    33    34    1
    16    34    35   ar
    17    35    36   ar
    18    36    37   ar
    19    37    38   ar
    20    38    39   ar
    21     3     4   ar
    22     4     5   ar
    23     5    25    1
    24    25    26   ar
    25    26    27   ar
    26    27    28   ar
    27    28    29   ar
    28    29    30   ar
    29     5     6   ar
    30     6     7   ar
    31     7     8   ar
    32     8     9   ar
    33     9    10   ar
    34    15    16   ar
    35    16    11   ar
    36    10     1   ar
    37    39    34   ar
    38     9     4   ar
    39    30    25   ar
    40    19    23    1
    41    19    24    1
    42    17    18    1
    43    31    32    1
@<TRIPOS>MOLECULE
*****
 39 43 0 0 0
SMALL
GASTEIGER

@<TRIPOS>ATOM
      1 C         140.3726  139.1406  160.2895 C.ar    1  UNL1        0.1651
      2 N         140.2905  140.5948  160.6481 N.ar    1  UNL1       -0.2121
      3 C         139.8107  141.0059  162.0085 C.ar    1  UNL1        0.1318
      4 C         139.4130  139.9628  163.0104 C.ar    1  UNL1        0.0491
      5 C         138.9332  140.3739  164.3709 C.ar    1  UNL1        0.0041
      6 C         138.5355  139.3308  165.3727 C.ar    1  UNL1        0.0002
      7 C         138.6175  137.8766  165.0141 C.ar    1  UNL1        0.0015
      8 C         139.0974  137.4655  163.6537 C.ar    1  UNL1        0.0192
      9 C         139.4951  138.5086  162.6518 C.ar    1  UNL1        0.0856
     10 N         139.9749  138.0975  161.2914 N.ar    1  UNL1       -0.2264
     11 C         142.7310  138.6451  157.1363 C.ar    1  UNL1        0.0850
     12 C         141.8120  137.9073  156.2082 C.ar    1  UNL1        0.1147
     13 N         140.4134  137.5807  156.6406 N.ar    1  UNL1       -0.2409
     14 C         139.9335  137.9918  158.0010 C.ar    1  UNL1        0.1020
     15 C         140.8524  138.7295  158.9291 C.ar    1  UNL1        0.0563
     16 C         142.2512  139.0562  158.4968 C.ar    1  UNL1        0.0221
     17 N         144.1297  138.9717  156.7040 N.pl3   1  UNL1       -0.2041
     18 H         144.8070  139.2189  157.3743 H       1  UNL1        0.1748
     19 N         144.8631  138.8715  153.7968 N.3     1  UNL1       -0.1906
     20 S         144.4964  138.9216  155.2504 S.O2    1  UNL1        0.1068
     21 O         145.0582  137.5438  155.4396 O.2     1  UNL1       -0.1383
     22 O         143.9345  140.2995  155.0612 O.2     1  UNL1       -0.1383
     23 H         145.8496  138.6299  153.7031 H       1  UNL1        0.1456
     24 H         144.6945  139.7834  153.3720 H       1  UNL1        0.1456
     25 C         138.8511  141.8281  164.7294 C.ar    1  UNL1        0.0001
     26 C         139.9406  142.4629  165.5417 C.ar    1  UNL1        0.0000
     27 C         139.8585  143.9172  165.9003 C.ar    1  UNL1        0.0000
     28 C         138.6869  144.7366  165.4465 C.ar    1  UNL1        0.0000
     29 C         137.5974  144.1017  164.6341 C.ar    1  UNL1        0.0000
     30 C         137.6795  142.6475  164.2756 C.ar    1  UNL1        0.0000
     31 N         139.7286  142.4601  162.3671 N.pl3   1  UNL1       -0.3131
     32 H         138.9450  142.8035  162.8541 H       1  UNL1        0.1485
     33 C         140.8406  143.3911  161.9836 C.3     1  UNL1        0.1348
     34 C         142.0138  143.5755  162.8998 C.ar    1  UNL1        0.0788
     35 C         142.4115  144.9529  163.3410 C.ar    1  UNL1        0.0165
     36 C         143.5849  145.1374  164.2572 C.ar    1  UNL1        0.0029
     37 C         144.3605  143.9445  164.7321 C.ar    1  UNL1        0.0207
     38 C         143.9627  142.5671  164.2908 C.ar    1  UNL1        0.0985
     39 N         142.7894  142.3827  163.3747 N.ar    1  UNL1       -0.2464
@<TRIPOS>BOND
     1    19    20    1
     2    20    21    2
     3    20    22    2
     4    20    17    1
     5    17    11    1
     6    11    12   ar
     7    12    13   ar
     8    13    14   ar
     9    14    15   ar
    10    15     1    1
    11     1     2   ar
    12     2     3   ar
    13     3    31    1
    14    31    33    1
    15    33    34    1
    16    34    35   ar
    17    35    36   ar
    18    36    37   ar
    19    37    38   ar
    20    38    39   ar
    21     3     4   ar
    22     4     5   ar
    23     5    25    1
    24    25    26   ar
    25    26    27   ar
    26    27    28   ar
    27    28    29   ar
    28    29    30   ar
    29     5     6   ar
    30     6     7   ar
    31     7     8   ar
    32     8     9   ar
    33     9    10   ar
    34    15    16   ar
    35    16    11   ar
    36    10     1   ar
    37    39    34   ar
    38     9     4   ar
    39    30    25   ar
    40    19    23    1
    41    19    24    1
    42    17    18    1
    43    31    32    1
@<TRIPOS>MOLECULE
*****
 39 43 0 0 0
SMALL
GASTEIGER

@<TRIPOS>ATOM
      1 C         140.6104  138.8757  160.4965 C.ar    1  UNL1        0.1651
      2 N         140.5140  140.3438  160.7893 N.ar    1  UNL1       -0.2121
      3 C         139.9604  140.8118  162.1025 C.ar    1  UNL1        0.1318
      4 C         139.5032  139.8119  163.1229 C.ar    1  UNL1        0.0491
      5 C         138.9496  140.2799  164.4361 C.ar    1  UNL1        0.0041
      6 C         138.4925  139.2800  165.4564 C.ar    1  UNL1        0.0002
      7 C         138.5889  137.8121  165.1636 C.ar    1  UNL1        0.0015
      8 C         139.1425  137.3440  163.8505 C.ar    1  UNL1        0.0192
      9 C         139.5997  138.3439  162.8301 C.ar    1  UNL1        0.0856
     10 N         140.1532  137.8759  161.5169 N.ar    1  UNL1       -0.2264
     11 C         140.7945  137.6817  156.7162 C.ar    1  UNL1        0.0850
     12 C         142.2712  137.4715  156.5570 C.ar    1  UNL1        0.1147
     13 N         143.1942  137.7295  157.7108 N.ar    1  UNL1       -0.2409
     14 C         142.6406  138.1975  159.0240 C.ar    1  UNL1        0.1020
     15 C         141.1640  138.4077  159.1833 C.ar    1  UNL1        0.0563
     16 C         140.2409  138.1498  158.0294 C.ar    1  UNL1        0.0221
     17 N         139.8715  137.4238  155.5624 N.pl3   1  UNL1       -0.2041
     18 H         139.9999  136.6276  154.9977 H       1  UNL1        0.1748
     19 N         137.6341  139.3341  154.9751 N.3     1  UNL1       -0.1906
     20 S         138.7528  138.3790  155.2687 S.O2    1  UNL1        0.1068
     21 O         139.7413  139.5012  155.1532 O.2     1  UNL1       -0.1383
     22 O         137.7642  137.2567  155.3843 O.2     1  UNL1       -0.1383
     23 H         137.6878  140.1274  155.6141 H       1  UNL1        0.1456
     24 H         136.7401  138.8587  155.0978 H       1  UNL1        0.1456
     25 C         138.8532  141.7480  164.7289 C.ar    1  UNL1        0.0001
     26 C         139.9181  142.4221  165.5422 C.ar    1  UNL1        0.0000
     27 C         139.8216  143.8901  165.8350 C.ar    1  UNL1        0.0000
     28 C         138.6603  144.6840  165.3144 C.ar    1  UNL1        0.0000
     29 C         137.5953  144.0098  164.5010 C.ar    1  UNL1        0.0000
     30 C         137.6918  142.5418  164.2083 C.ar    1  UNL1        0.0000
     31 N         139.8639  142.2798  162.3953 N.pl3   1  UNL1       -0.3131
     32 H         139.0680  142.6399  162.8493 H       1  UNL1        0.1485
     33 C         140.9801  143.1991  161.9964 C.3     1  UNL1        0.1348
     34 C         142.1136  143.4578  162.9441 C.ar    1  UNL1        0.0788
     35 C         142.4814  144.8661  163.3068 C.ar    1  UNL1        0.0165
     36 C         143.6149  145.1248  164.2545 C.ar    1  UNL1        0.0029
     37 C         144.3807  143.9753  164.8395 C.ar    1  UNL1        0.0207
     38 C         144.0129  142.5670  164.4768 C.ar    1  UNL1        0.0985
     39 N         142.8794  142.3083  163.5291 N.ar    1  UNL1       -0.2464
@<TRIPOS>BOND
     1    19    20    1
     2    20    21    2
     3    20    22    2
     4    20    17    1
     5    17    11    1
     6    11    12   ar
     7    12    13   ar
     8    13    14   ar
     9    14    15   ar
    10    15     1    1
    11     1     2   ar
    12     2     3   ar
    13     3    31    1
    14    31    33    1
    15    33    34    1
    16    34    35   ar
    17    35    36   ar
    18    36    37   ar
    19    37    38   ar
    20    38    39   ar
    21     3     4   ar
    22     4     5   ar
    23     5    25    1
    24    25    26   ar
    25    26    27   ar
    26    27    28   ar
    27    28    29   ar
    28    29    30   ar
    29     5     6   ar
    30     6     7   ar
    31     7     8   ar
    32     8     9   ar
    33     9    10   ar
    34    15    16   ar
    35    16    11   ar
    36    10     1   ar
    37    39    34   ar
    38     9     4   ar
    39    30    25   ar
    40    19    23    1
    41    19    24    1
    42    17    18    1
    43    31    32    1
@<TRIPOS>MOLECULE
*****
 39 43 0 0 0
SMALL
GASTEIGER

@<TRIPOS>ATOM
      1 C         141.4696  143.4540  160.6423 C.ar    1  UNL1        0.1651
      2 N         141.4137  142.0591  161.1913 N.ar    1  UNL1       -0.2121
      3 C         142.0804  141.7396  162.4964 C.ar    1  UNL1        0.1318
      4 C         142.8030  142.8149  163.2526 C.ar    1  UNL1        0.0491
      5 C         143.4697  142.4953  164.5577 C.ar    1  UNL1        0.0041
      6 C         144.1922  143.5705  165.3139 C.ar    1  UNL1        0.0002
      7 C         144.2481  144.9653  164.7648 C.ar    1  UNL1        0.0015
      8 C         143.5814  145.2848  163.4597 C.ar    1  UNL1        0.0192
      9 C         142.8588  144.2096  162.7036 C.ar    1  UNL1        0.0856
     10 N         142.1922  144.5292  161.3984 N.ar    1  UNL1       -0.2264
     11 C         140.4491  145.3785  157.3249 C.ar    1  UNL1        0.0850
     12 C         139.4695  144.4127  156.7268 C.ar    1  UNL1        0.1147
     13 N         139.1567  143.1274  157.4339 N.ar    1  UNL1       -0.2409
     14 C         139.8233  142.8078  158.7391 C.ar    1  UNL1        0.1020
     15 C         140.8029  143.7736  159.3371 C.ar    1  UNL1        0.0563
     16 C         141.1158  145.0590  158.6300 C.ar    1  UNL1        0.0221
     17 N         140.7620  146.6638  156.6178 N.pl3   1  UNL1       -0.2041
     18 H         141.4943  147.2375  156.9403 H       1  UNL1        0.1748
     19 N         139.1565  147.4866  154.2208 N.3     1  UNL1       -0.1906
     20 S         139.9593  147.0752  155.4193 S.O2    1  UNL1        0.1068
     21 O         138.9427  147.7131  156.3192 O.2     1  UNL1       -0.1383
     22 O         140.9758  146.4373  154.5195 O.2     1  UNL1       -0.1383
     23 H         138.1947  147.1645  154.3290 H       1  UNL1        0.1456
     24 H         139.5616  147.0719  153.3816 H       1  UNL1        0.1456
     25 C         143.4138  141.1005  165.1067 C.ar    1  UNL1        0.0001
     26 C         144.4064  140.0737  164.6482 C.ar    1  UNL1        0.0000
     27 C         144.3505  138.6788  165.1972 C.ar    1  UNL1        0.0000
     28 C         143.3019  138.3108  166.2047 C.ar    1  UNL1        0.0000
     29 C         142.3092  139.3377  166.6632 C.ar    1  UNL1        0.0000
     30 C         142.3651  140.7325  166.1142 C.ar    1  UNL1        0.0000
     31 N         142.0245  140.3448  163.0454 N.pl3   1  UNL1       -0.3131
     32 H         142.7830  139.9884  163.5622 H       1  UNL1        0.1485
     33 C         140.8130  139.4929  162.8072 C.3     1  UNL1        0.1348
     34 C         139.8981  139.1547  163.9467 C.ar    1  UNL1        0.0788
     35 C         139.7232  137.7262  164.3694 C.ar    1  UNL1        0.0165
     36 C         138.8082  137.3880  165.5090 C.ar    1  UNL1        0.0029
     37 C         138.0682  138.4782  166.2257 C.ar    1  UNL1        0.0207
     38 C         138.2432  139.9068  165.8029 C.ar    1  UNL1        0.0985
     39 N         139.1581  140.2450  164.6634 N.ar    1  UNL1       -0.2464
@<TRIPOS>BOND
     1    19    20    1
     2    20    21    2
     3    20    22    2
     4    20    17    1
     5    17    11    1
     6    11    12   ar
     7    12    13   ar
     8    13    14   ar
     9    14    15   ar
    10    15     1    1
    11     1     2   ar
    12     2     3   ar
    13     3    31    1
    14    31    33    1
    15    33    34    1
    16    34    35   ar
    17    35    36   ar
    18    36    37   ar
    19    37    38   ar
    20    38    39   ar
    21     3     4   ar
    22     4     5   ar
    23     5    25    1
    24    25    26   ar
    25    26    27   ar
    26    27    28   ar
    27    28    29   ar
    28    29    30   ar
    29     5     6   ar
    30     6     7   ar
    31     7     8   ar
    32     8     9   ar
    33     9    10   ar
    34    15    16   ar
    35    16    11   ar
    36    10     1   ar
    37    39    34   ar
    38     9     4   ar
    39    30    25   ar
    40    19    23    1
    41    19    24    1
    42    17    18    1
    43    31    32    1
@<TRIPOS>MOLECULE
*****
 39 43 0 0 0
SMALL
GASTEIGER

@<TRIPOS>ATOM
      1 C         141.3199  139.3111  160.3108 C.ar    1  UNL1        0.1651
      2 N         141.1282  140.7513  160.6840 N.ar    1  UNL1       -0.2121
      3 C         140.3975  141.1087  161.9442 C.ar    1  UNL1        0.1318
      4 C         139.8584  140.0258  162.8314 C.ar    1  UNL1        0.0491
      5 C         139.1276  140.3832  164.0916 C.ar    1  UNL1        0.0041
      6 C         138.5885  139.3005  164.9787 C.ar    1  UNL1        0.0002
      7 C         138.7802  137.8604  164.6056 C.ar    1  UNL1        0.0015
      8 C         139.5109  137.5030  163.3454 C.ar    1  UNL1        0.0192
      9 C         140.0500  138.5857  162.4582 C.ar    1  UNL1        0.0856
     10 N         140.7808  138.2283  161.1980 N.ar    1  UNL1       -0.2264
     11 C         142.4763  137.3073  157.0863 C.ar    1  UNL1        0.0850
     12 C         143.5122  138.2389  156.5301 C.ar    1  UNL1        0.1147
     13 N         143.8172  139.5278  157.2341 N.ar    1  UNL1       -0.2409
     14 C         143.0864  139.8852  158.4944 C.ar    1  UNL1        0.1020
     15 C         142.0506  138.9537  159.0506 C.ar    1  UNL1        0.0563
     16 C         141.7456  137.6647  158.3465 C.ar    1  UNL1        0.0221
     17 N         142.1713  136.0185  156.3822 N.pl3   1  UNL1       -0.2041
     18 H         141.2650  135.8486  156.0372 H       1  UNL1        0.1748
     19 N         144.3228  133.9584  156.0255 N.3     1  UNL1       -0.1906
     20 S         143.2471  134.9884  156.2039 S.O2    1  UNL1        0.1068
     21 O         143.2962  134.7826  157.6889 O.2     1  UNL1       -0.1383
     22 O         143.1979  135.1943  154.7189 O.2     1  UNL1       -0.1383
     23 H         145.1198  134.1932  156.6172 H       1  UNL1        0.1456
     24 H         144.6178  133.9404  155.0492 H       1  UNL1        0.1456
     25 C         138.9359  141.8234  164.4647 C.ar    1  UNL1        0.0001
     26 C         139.8928  142.4870  165.4102 C.ar    1  UNL1        0.0000
     27 C         139.7012  143.9272  165.7833 C.ar    1  UNL1        0.0000
     28 C         138.5526  144.7038  165.2109 C.ar    1  UNL1        0.0000
     29 C         137.5956  144.0401  164.2654 C.ar    1  UNL1        0.0000
     30 C         137.7873  142.6000  163.8923 C.ar    1  UNL1        0.0000
     31 N         140.2058  142.5488  162.3174 N.pl3   1  UNL1       -0.3131
     32 H         139.3373  142.8559  162.6647 H       1  UNL1        0.1485
     33 C         141.3374  143.5210  162.1613 C.3     1  UNL1        0.1348
     34 C         142.4298  143.5715  163.1880 C.ar    1  UNL1        0.0788
     35 C         142.9194  144.8946  163.6976 C.ar    1  UNL1        0.0165
     36 C         144.0119  144.9451  164.7243 C.ar    1  UNL1        0.0029
     37 C         144.6146  143.6726  165.2414 C.ar    1  UNL1        0.0207
     38 C         144.1248  142.3495  164.7318 C.ar    1  UNL1        0.0985
     39 N         143.0325  142.2990  163.7051 N.ar    1  UNL1       -0.2464
@<TRIPOS>BOND
     1    19    20    1
     2    20    21    2
     3    20    22    2
     4    20    17    1
     5    17    11    1
     6    11    12   ar
     7    12    13   ar
     8    13    14   ar
     9    14    15   ar
    10    15     1    1
    11     1     2   ar
    12     2     3   ar
    13     3    31    1
    14    31    33    1
    15    33    34    1
    16    34    35   ar
    17    35    36   ar
    18    36    37   ar
    19    37    38   ar
    20    38    39   ar
    21     3     4   ar
    22     4     5   ar
    23     5    25    1
    24    25    26   ar
    25    26    27   ar
    26    27    28   ar
    27    28    29   ar
    28    29    30   ar
    29     5     6   ar
    30     6     7   ar
    31     7     8   ar
    32     8     9   ar
    33     9    10   ar
    34    15    16   ar
    35    16    11   ar
    36    10     1   ar
    37    39    34   ar
    38     9     4   ar
    39    30    25   ar
    40    19    23    1
    41    19    24    1
    42    17    18    1
    43    31    32    1
@<TRIPOS>MOLECULE
*****
 39 43 0 0 0
SMALL
GASTEIGER

@<TRIPOS>ATOM
      1 C         139.9322  141.5540  166.4765 C.ar    1  UNL1        0.1651
      2 N         139.9167  140.4975  165.4117 N.ar    1  UNL1       -0.2121
      3 C         139.7856  140.8882  163.9694 C.ar    1  UNL1        0.1318
      4 C         139.6701  142.3353  163.5919 C.ar    1  UNL1        0.0491
      5 C         139.5391  142.7260  162.1496 C.ar    1  UNL1        0.0041
      6 C         139.4235  144.1731  161.7720 C.ar    1  UNL1        0.0002
      7 C         139.4390  145.2295  162.8368 C.ar    1  UNL1        0.0015
      8 C         139.5701  144.8388  164.2791 C.ar    1  UNL1        0.0192
      9 C         139.6856  143.3917  164.6566 C.ar    1  UNL1        0.0856
     10 N         139.8166  143.0011  166.0989 N.ar    1  UNL1       -0.2264
     11 C         141.1894  141.4710  170.2398 C.ar    1  UNL1        0.0850
     12 C         140.3253  140.3820  170.8033 C.ar    1  UNL1        0.1147
     13 N         139.3302  139.6837  169.9246 N.ar    1  UNL1       -0.2409
     14 C         139.1992  140.0744  168.4823 C.ar    1  UNL1        0.1020
     15 C         140.0632  141.1633  167.9188 C.ar    1  UNL1        0.0563
     16 C         141.0583  141.8617  168.7975 C.ar    1  UNL1        0.0221
     17 N         142.1844  142.1693  171.1186 N.pl3   1  UNL1       -0.2041
     18 H         141.9622  142.3605  172.0584 H       1  UNL1        0.1748
     19 N         144.8516  142.9831  170.0122 N.3     1  UNL1       -0.1906
     20 S         143.5180  142.5762  170.5654 S.O2    1  UNL1        0.1068
     21 O         143.2385  144.0015  170.9400 O.2     1  UNL1       -0.1383
     22 O         143.7975  141.1508  170.1907 O.2     1  UNL1       -0.1383
     23 H         144.7250  143.7438  169.3446 H       1  UNL1        0.1456
     24 H         145.2822  142.1866  169.5425 H       1  UNL1        0.1456
     25 C         139.5236  141.6695  161.0848 C.ar    1  UNL1        0.0001
     26 C         140.7956  141.2898  160.3865 C.ar    1  UNL1        0.0000
     27 C         140.7801  140.2333  159.3217 C.ar    1  UNL1        0.0000
     28 C         139.4925  139.5566  158.9553 C.ar    1  UNL1        0.0000
     29 C         138.2204  139.9364  159.6538 C.ar    1  UNL1        0.0000
     30 C         138.2360  140.9928  160.7185 C.ar    1  UNL1        0.0000
     31 N         139.7701  139.8318  162.9046 N.pl3   1  UNL1       -0.3131
     32 H         139.0881  139.8580  162.1951 H       1  UNL1        0.1485
     33 C         140.7938  138.7354  162.9209 C.3     1  UNL1        0.1348
     34 C         142.1893  139.0192  163.3920 C.ar    1  UNL1        0.0788
     35 C         143.1434  139.7633  162.5055 C.ar    1  UNL1        0.0165
     36 C         144.5390  140.0472  162.9766 C.ar    1  UNL1        0.0029
     37 C         144.9804  139.5869  164.3343 C.ar    1  UNL1        0.0207
     38 C         144.0262  138.8427  165.2208 C.ar    1  UNL1        0.0985
     39 N         142.6307  138.5589  164.7497 N.ar    1  UNL1       -0.2464
@<TRIPOS>BOND
     1    19    20    1
     2    20    21    2
     3    20    22    2
     4    20    17    1
     5    17    11    1
     6    11    12   ar
     7    12    13   ar
     8    13    14   ar
     9    14    15   ar
    10    15     1    1
    11     1     2   ar
    12     2     3   ar
    13     3    31    1
    14    31    33    1
    15    33    34    1
    16    34    35   ar
    17    35    36   ar
    18    36    37   ar
    19    37    38   ar
    20    38    39   ar
    21     3     4   ar
    22     4     5   ar
    23     5    25    1
    24    25    26   ar
    25    26    27   ar
    26    27    28   ar
    27    28    29   ar
    28    29    30   ar
    29     5     6   ar
    30     6     7   ar
    31     7     8   ar
    32     8     9   ar
    33     9    10   ar
    34    15    16   ar
    35    16    11   ar
    36    10     1   ar
    37    39    34   ar
    38     9     4   ar
    39    30    25   ar
    40    19    23    1
    41    19    24    1
    42    17    18    1
    43    31    32    1
@<TRIPOS>MOLECULE
*****
 39 43 0 0 0
SMALL
GASTEIGER

@<TRIPOS>ATOM
      1 C         141.3747  139.1658  163.0598 C.ar    1  UNL1        0.1651
      2 N         142.2836  139.9277  163.9783 N.ar    1  UNL1       -0.2121
      3 C         141.8681  140.1919  165.3952 C.ar    1  UNL1        0.1318
      4 C         140.5436  139.6942  165.8936 C.ar    1  UNL1        0.0491
      5 C         140.1281  139.9584  167.3104 C.ar    1  UNL1        0.0041
      6 C         138.8038  139.4607  167.8089 C.ar    1  UNL1        0.0002
      7 C         137.8950  138.6989  166.8904 C.ar    1  UNL1        0.0015
      8 C         138.3105  138.4347  165.4735 C.ar    1  UNL1        0.0192
      9 C         139.6348  138.9323  164.9751 C.ar    1  UNL1        0.0856
     10 N         140.0504  138.6682  163.5582 N.ar    1  UNL1       -0.2264
     11 C         141.4918  139.3179  159.0958 C.ar    1  UNL1        0.0850
     12 C         142.6212  138.3732  158.8092 C.ar    1  UNL1        0.1147
     13 N         143.3350  137.6928  159.9394 N.ar    1  UNL1       -0.2409
     14 C         142.9195  137.9570  161.3562 C.ar    1  UNL1        0.1020
     15 C         141.7902  138.9016  161.6429 C.ar    1  UNL1        0.0563
     16 C         141.0763  139.5821  160.5127 C.ar    1  UNL1        0.0221
     17 N         140.7780  139.9984  157.9656 N.pl3   1  UNL1       -0.2041
     18 H         141.2914  140.3744  157.2144 H       1  UNL1        0.1748
     19 N         137.7859  140.2134  157.9941 N.3     1  UNL1       -0.1906
     20 S         139.2819  140.1059  157.9798 S.O2    1  UNL1        0.1068
     21 O         139.3902  141.5731  158.2722 O.2     1  UNL1       -0.1383
     22 O         139.1737  138.6387  157.6875 O.2     1  UNL1       -0.1383
     23 H         137.4850  140.6551  158.8629 H       1  UNL1        0.1456
     24 H         137.3773  139.2812  157.9273 H       1  UNL1        0.1456
     25 C         141.0370  140.7203  168.2289 C.ar    1  UNL1        0.0001
     26 C         140.8592  142.1995  168.4027 C.ar    1  UNL1        0.0000
     27 C         141.7681  142.9614  169.3212 C.ar    1  UNL1        0.0000
     28 C         142.8548  142.2440  170.0658 C.ar    1  UNL1        0.0000
     29 C         143.0325  140.7646  169.8920 C.ar    1  UNL1        0.0000
     30 C         142.1237  140.0028  168.9736 C.ar    1  UNL1        0.0000
     31 N         142.7769  140.9537  166.3136 N.pl3   1  UNL1       -0.3131
     32 H         142.8303  140.7107  167.2662 H       1  UNL1        0.1485
     33 C         143.6042  142.0859  165.7808 C.3     1  UNL1        0.1348
     34 C         142.9555  143.1786  164.9838 C.ar    1  UNL1        0.0788
     35 C         143.7887  144.0561  164.0975 C.ar    1  UNL1        0.0165
     36 C         143.1400  145.1489  163.3004 C.ar    1  UNL1        0.0029
     37 C         141.6582  145.3640  163.3899 C.ar    1  UNL1        0.0207
     38 C         140.8251  144.4864  164.2763 C.ar    1  UNL1        0.0985
     39 N         141.4738  143.3937  165.0733 N.ar    1  UNL1       -0.2464
@<TRIPOS>BOND
     1    19    20    1
     2    20    21    2
     3    20    22    2
     4    20    17    1
     5    17    11    1
     6    11    12   ar
     7    12    13   ar
     8    13    14   ar
     9    14    15   ar
    10    15     1    1
    11     1     2   ar
    12     2     3   ar
    13     3    31    1
    14    31    33    1
    15    33    34    1
    16    34    35   ar
    17    35    36   ar
    18    36    37   ar
    19    37    38   ar
    20    38    39   ar
    21     3     4   ar
    22     4     5   ar
    23     5    25    1
    24    25    26   ar
    25    26    27   ar
    26    27    28   ar
    27    28    29   ar
    28    29    30   ar
    29     5     6   ar
    30     6     7   ar
    31     7     8   ar
    32     8     9   ar
    33     9    10   ar
    34    15    16   ar
    35    16    11   ar
    36    10     1   ar
    37    39    34   ar
    38     9     4   ar
    39    30    25   ar
    40    19    23    1
    41    19    24    1
    42    17    18    1
    43    31    32    1
