@<TRIPOS>MOLECULE
*****
 30 32 0 0 0
SMALL
GASTEIGER

@<TRIPOS>ATOM
      1 C         143.5780  139.1446  161.2538 C.ar    1  UNL1        0.1773
      2 C         142.7997  138.0319  161.8911 C.ar    1  UNL1        0.1402
      3 N         142.2295  138.2079  163.2673 N.ar    1  UNL1       -0.2089
      4 C         142.4375  139.4967  164.0060 C.ar    1  UNL1        0.2205
      5 N         143.2157  140.6094  163.3687 N.ar    1  UNL1       -0.2089
      6 C         143.7860  140.4334  161.9926 C.ar    1  UNL1        0.1402
      7 N         141.8672  139.6728  165.3823 N.pl3   1  UNL1       -0.2747
      8 C         142.7710  140.0093  166.5312 C.3     1  UNL1        0.1152
      9 C         142.2008  140.1853  167.9073 C.3     1  UNL1        0.1182
     10 N         140.7268  140.0249  168.1345 N.am    1  UNL1       -0.2425
     11 C         140.1566  140.2010  169.5108 C.2     1  UNL1        0.4052
     12 O         138.6826  140.0406  169.7380 O.2     1  UNL1       -0.2262
     13 C         139.8231  139.6884  166.9856 C.3     1  UNL1        0.1182
     14 C         140.3933  139.5123  165.6095 C.3     1  UNL1        0.1152
     15 O         141.0603  140.5375  170.6597 O.3     1  UNL1       -0.4252
     16 C         141.3783  141.9704  170.9690 C.3     1  UNL1        0.3125
     17 C         140.7718  143.0678  170.1458 C.3     1  UNL1        0.4382
     18 F         140.1653  144.1653  169.3226 F       1  UNL1       -0.1663
     19 F         142.0406  143.1743  169.3529 F       1  UNL1       -0.1663
     20 F         139.5030  142.9614  170.9388 F       1  UNL1       -0.1663
     21 O         144.1483  138.9685  159.8776 O.3     1  UNL1       -0.4675
     22 C         143.4439  139.5598  158.6926 C.3     1  UNL1        0.2329
     23 C         142.1676  138.0467  157.0098 C.ar    1  UNL1        0.0871
     24 C         140.8850  137.4418  156.5209 C.ar    1  UNL1        0.1089
     25 N         139.5962  137.7447  157.2260 N.ar    1  UNL1       -0.2416
     26 C         139.5899  138.6527  158.4200 C.ar    1  UNL1        0.0987
     27 C         140.8725  139.2577  158.9088 C.ar    1  UNL1        0.0207
     28 C         142.1613  138.9547  158.2037 C.ar    1  UNL1        0.0339
     29 N         144.7452  137.4408  155.5995 N.1     1  UNL1       -0.1908
     30 C         143.4564  137.7438  156.3047 C.1     1  UNL1        0.1018
@<TRIPOS>BOND
     1    29    30    3
     2    30    23    1
     3    23    24   ar
     4    24    25   ar
     5    25    26   ar
     6    26    27   ar
     7    27    28   ar
     8    28    22    1
     9    22    21    1
    10    21     1    1
    11     1     2   ar
    12     2     3   ar
    13     3     4   ar
    14     4     7    1
    15     7     8    1
    16     8     9    1
    17     9    10    1
    18    10    11   am
    19    11    12    2
    20    11    15    1
    21    15    16    1
    22    16    17    1
    23    17    18    1
    24    17    19    1
    25    17    20    1
    26    10    13    1
    27    13    14    1
    28     4     5   ar
    29     5     6   ar
    30    28    23   ar
    31     6     1   ar
    32    14     7    1
@<TRIPOS>MOLECULE
*****
 30 32 0 0 0
SMALL
GASTEIGER

@<TRIPOS>ATOM
      1 C         138.3775  139.2501  160.9375 C.ar    1  UNL1        0.1773
      2 C         139.1283  138.2355  161.7481 C.ar    1  UNL1        0.1402
      3 N         139.3209  138.4458  163.2207 N.ar    1  UNL1       -0.2089
      4 C         138.7627  139.6705  163.8827 C.ar    1  UNL1        0.2205
      5 N         138.0119  140.6851  163.0721 N.ar    1  UNL1       -0.2089
      6 C         137.8193  140.4748  161.5995 C.ar    1  UNL1        0.1402
      7 N         138.9553  139.8808  165.3554 N.pl3   1  UNL1       -0.2747
      8 C         139.8909  140.9462  165.8448 C.3     1  UNL1        0.1152
      9 C         140.0836  141.1565  167.3174 C.3     1  UNL1        0.1182
     10 N         139.3405  140.3014  168.3006 N.am    1  UNL1       -0.2425
     11 C         139.5331  140.5117  169.7733 C.2     1  UNL1        0.4052
     12 O         138.7901  139.6567  170.7565 O.2     1  UNL1       -0.2262
     13 C         138.4049  139.2361  167.8112 C.3     1  UNL1        0.1182
     14 C         138.2122  139.0258  166.3386 C.3     1  UNL1        0.1152
     15 O         140.4688  141.5771  170.2628 O.3     1  UNL1       -0.4252
     16 C         141.8744  141.2219  170.6474 C.3     1  UNL1        0.3125
     17 C         143.0304  141.8348  169.9139 C.3     1  UNL1        0.4382
     18 F         144.1864  142.4476  169.1803 F       1  UNL1       -0.1663
     19 F         143.1146  140.6229  169.0340 F       1  UNL1       -0.1663
     20 F         142.9462  143.0467  170.7938 F       1  UNL1       -0.1663
     21 O         138.1849  139.0398  159.4648 O.3     1  UNL1       -0.4675
     22 C         139.0914  139.7235  158.4847 C.3     1  UNL1        0.2329
     23 C         140.7542  138.1417  157.2670 C.ar    1  UNL1        0.0871
     24 C         142.1513  137.6368  157.0591 C.ar    1  UNL1        0.1089
     25 N         143.2826  138.2088  157.8609 N.ar    1  UNL1       -0.2416
     26 C         143.0169  139.2857  158.8706 C.ar    1  UNL1        0.0987
     27 C         141.6198  139.7906  159.0786 C.ar    1  UNL1        0.0207
     28 C         140.4885  139.2186  158.2767 C.ar    1  UNL1        0.0339
     29 N         138.4916  136.9977  155.6633 N.1     1  UNL1       -0.1908
     30 C         139.6229  137.5697  156.4651 C.1     1  UNL1        0.1018
@<TRIPOS>BOND
     1    29    30    3
     2    30    23    1
     3    23    24   ar
     4    24    25   ar
     5    25    26   ar
     6    26    27   ar
     7    27    28   ar
     8    28    22    1
     9    22    21    1
    10    21     1    1
    11     1     2   ar
    12     2     3   ar
    13     3     4   ar
    14     4     7    1
    15     7     8    1
    16     8     9    1
    17     9    10    1
    18    10    11   am
    19    11    12    2
    20    11    15    1
    21    15    16    1
    22    16    17    1
    23    17    18    1
    24    17    19    1
    25    17    20    1
    26    10    13    1
    27    13    14    1
    28     4     5   ar
    29     5     6   ar
    30    28    23   ar
    31     6     1   ar
    32    14     7    1
@<TRIPOS>MOLECULE
*****
 30 32 0 0 0
SMALL
GASTEIGER

@<TRIPOS>ATOM
      1 C         142.5609  138.0028  158.9535 C.ar    1  UNL1        0.1773
      2 C         143.2889  137.6096  160.2046 C.ar    1  UNL1        0.1402
      3 N         142.6363  137.7963  161.5422 N.ar    1  UNL1       -0.2089
      4 C         141.2557  138.3763  161.6287 C.ar    1  UNL1        0.2205
      5 N         140.5277  138.7695  160.3775 N.ar    1  UNL1       -0.2089
      6 C         141.1803  138.5827  159.0399 C.ar    1  UNL1        0.1402
      7 N         140.6030  138.5631  162.9663 N.pl3   1  UNL1       -0.2747
      8 C         141.1043  139.6210  163.9042 C.3     1  UNL1        0.1152
      9 C         140.4517  139.8078  165.2417 C.3     1  UNL1        0.1182
     10 N         139.2979  138.9367  165.6415 N.am    1  UNL1       -0.2425
     11 C         138.6452  139.1235  166.9791 C.2     1  UNL1        0.4052
     12 O         137.4914  138.2524  167.3788 O.2     1  UNL1       -0.2262
     13 C         138.7966  137.8788  164.7036 C.3     1  UNL1        0.1182
     14 C         139.4492  137.6920  163.3660 C.3     1  UNL1        0.1152
     15 O         139.1464  140.1815  167.9170 O.3     1  UNL1       -0.4252
     16 C         140.4165  139.9628  168.6844 C.3     1  UNL1        0.3125
     17 C         140.4641  140.2549  170.1549 C.3     1  UNL1        0.4382
     18 F         140.5117  140.5471  171.6254 F       1  UNL1       -0.1663
     19 F         139.4329  141.3292  169.9748 F       1  UNL1       -0.1663
     20 F         141.4954  139.1807  170.3350 F       1  UNL1       -0.1663
     21 O         143.2135  137.8160  157.6158 O.3     1  UNL1       -0.4675
     22 C         142.4611  137.1533  156.5002 C.3     1  UNL1        0.2329
     23 C         141.4523  134.9941  155.4658 C.ar    1  UNL1        0.0871
     24 C         141.3887  133.4974  155.3893 C.ar    1  UNL1        0.1089
     25 N         142.2703  132.6632  156.2707 N.ar    1  UNL1       -0.2416
     26 C         143.2155  133.3258  157.2287 C.ar    1  UNL1        0.0987
     27 C         143.2791  134.8224  157.3051 C.ar    1  UNL1        0.0207
     28 C         142.3975  135.6566  156.4237 C.ar    1  UNL1        0.0339
     29 N         139.6891  136.6624  153.7029 N.1     1  UNL1       -0.1908
     30 C         140.5707  135.8282  154.5843 C.1     1  UNL1        0.1018
@<TRIPOS>BOND
     1    29    30    3
     2    30    23    1
     3    23    24   ar
     4    24    25   ar
     5    25    26   ar
     6    26    27   ar
     7    27    28   ar
     8    28    22    1
     9    22    21    1
    10    21     1    1
    11     1     2   ar
    12     2     3   ar
    13     3     4   ar
    14     4     7    1
    15     7     8    1
    16     8     9    1
    17     9    10    1
    18    10    11   am
    19    11    12    2
    20    11    15    1
    21    15    16    1
    22    16    17    1
    23    17    18    1
    24    17    19    1
    25    17    20    1
    26    10    13    1
    27    13    14    1
    28     4     5   ar
    29     5     6   ar
    30    28    23   ar
    31     6     1   ar
    32    14     7    1
@<TRIPOS>MOLECULE
*****
 30 32 0 0 0
SMALL
GASTEIGER

@<TRIPOS>ATOM
      1 C         139.1419  138.4505  160.8845 C.ar    1  UNL1        0.1773
      2 C         140.3299  137.9792  161.6696 C.ar    1  UNL1        0.1402
      3 N         140.4140  138.2559  163.1414 N.ar    1  UNL1       -0.2089
      4 C         139.3100  139.0039  163.8281 C.ar    1  UNL1        0.2205
      5 N         138.1220  139.4753  163.0430 N.ar    1  UNL1       -0.2089
      6 C         138.0379  139.1986  161.5712 C.ar    1  UNL1        0.1402
      7 N         139.3940  139.2806  165.3001 N.pl3   1  UNL1       -0.2747
      8 C         140.6778  139.7748  165.8982 C.3     1  UNL1        0.1152
      9 C         140.7618  140.0515  167.3700 C.3     1  UNL1        0.1182
     10 N         139.5621  139.8340  168.2437 N.am    1  UNL1       -0.2425
     11 C         139.6461  140.1107  169.7156 C.2     1  UNL1        0.4052
     12 O         138.4464  139.8932  170.5893 O.2     1  UNL1       -0.2262
     13 C         138.2784  139.3398  167.6456 C.3     1  UNL1        0.1182
     14 C         138.1943  139.0631  166.1737 C.3     1  UNL1        0.1152
     15 O         140.9299  140.6050  170.3137 O.3     1  UNL1       -0.4252
     16 C         141.0174  142.0022  170.8522 C.3     1  UNL1        0.3125
     17 C         140.5453  143.1576  170.0201 C.3     1  UNL1        0.4382
     18 F         140.0733  144.3129  169.1880 F       1  UNL1       -0.1663
     19 F         141.7818  143.0557  169.1770 F       1  UNL1       -0.1663
     20 F         139.3089  143.2595  170.8632 F       1  UNL1       -0.1663
     21 O         139.0579  138.1738  159.4126 O.3     1  UNL1       -0.4675
     22 C         139.7326  139.0921  158.4371 C.3     1  UNL1        0.2329
     23 C         138.7556  141.4983  158.3630 C.ar    1  UNL1        0.0871
     24 C         138.8797  142.9608  158.6722 C.ar    1  UNL1        0.1089
     25 N         140.1049  143.4796  159.3649 N.ar    1  UNL1       -0.2416
     26 C         141.2059  142.5359  159.7483 C.ar    1  UNL1        0.0987
     27 C         141.0818  141.0735  159.4390 C.ar    1  UNL1        0.0207
     28 C         139.8567  140.5547  158.7464 C.ar    1  UNL1        0.0339
     29 N         136.3052  140.4607  156.9777 N.1     1  UNL1       -0.1908
     30 C         137.5304  140.9795  157.6703 C.1     1  UNL1        0.1018
@<TRIPOS>BOND
     1    29    30    3
     2    30    23    1
     3    23    24   ar
     4    24    25   ar
     5    25    26   ar
     6    26    27   ar
     7    27    28   ar
     8    28    22    1
     9    22    21    1
    10    21     1    1
    11     1     2   ar
    12     2     3   ar
    13     3     4   ar
    14     4     7    1
    15     7     8    1
    16     8     9    1
    17     9    10    1
    18    10    11   am
    19    11    12    2
    20    11    15    1
    21    15    16    1
    22    16    17    1
    23    17    18    1
    24    17    19    1
    25    17    20    1
    26    10    13    1
    27    13    14    1
    28     4     5   ar
    29     5     6   ar
    30    28    23   ar
    31     6     1   ar
    32    14     7    1
@<TRIPOS>MOLECULE
*****
 30 32 0 0 0
SMALL
GASTEIGER

@<TRIPOS>ATOM
      1 C         142.2042  137.9116  161.5767 C.ar    1  UNL1        0.1773
      2 C         143.2375  138.3276  162.5813 C.ar    1  UNL1        0.1402
      3 N         142.8193  138.7321  163.9638 N.ar    1  UNL1       -0.2089
      4 C         141.3678  138.7206  164.3417 C.ar    1  UNL1        0.2205
      5 N         140.3345  138.3046  163.3371 N.ar    1  UNL1       -0.2089
      6 C         140.7527  137.9001  161.9546 C.ar    1  UNL1        0.1402
      7 N         140.9494  139.1251  165.7243 N.pl3   1  UNL1       -0.2747
      8 C         141.9858  139.4989  166.7422 C.3     1  UNL1        0.1152
      9 C         141.5676  139.9034  168.1247 C.3     1  UNL1        0.1182
     10 N         140.1129  139.9340  168.4893 N.am    1  UNL1       -0.2425
     11 C         139.6946  140.3385  169.8719 C.2     1  UNL1        0.4052
     12 O         138.2400  140.3692  170.2366 O.2     1  UNL1       -0.2262
     13 C         139.0765  139.5602  167.4714 C.3     1  UNL1        0.1182
     14 C         139.4948  139.1557  166.0889 C.3     1  UNL1        0.1152
     15 O         140.7310  140.7123  170.8898 O.3     1  UNL1       -0.4252
     16 C         140.9662  142.1552  171.2257 C.3     1  UNL1        0.3125
     17 C         140.5532  143.2268  170.2609 C.3     1  UNL1        0.4382
     18 F         140.1401  144.2985  169.2960 F       1  UNL1       -0.1663
     19 F         141.8132  143.0069  169.4772 F       1  UNL1       -0.1663
     20 F         139.2932  143.4467  171.0445 F       1  UNL1       -0.1663
     21 O         142.6226  137.5071  160.1941 O.3     1  UNL1       -0.4675
     22 C         142.5525  138.4972  159.0695 C.3     1  UNL1        0.2329
     23 C         140.3398  139.7375  158.5076 C.ar    1  UNL1        0.0871
     24 C         139.0884  139.8553  157.6890 C.ar    1  UNL1        0.1089
     25 N         138.7985  138.8507  156.6135 N.ar    1  UNL1       -0.2416
     26 C         139.7598  137.7283  156.3566 C.ar    1  UNL1        0.0987
     27 C         141.0111  137.6105  157.1753 C.ar    1  UNL1        0.0207
     28 C         141.3011  138.6151  158.2508 C.ar    1  UNL1        0.0339
     29 N         140.9197  141.7466  160.6587 N.1     1  UNL1       -0.1908
     30 C         140.6297  140.7421  159.5832 C.1     1  UNL1        0.1018
@<TRIPOS>BOND
     1    29    30    3
     2    30    23    1
     3    23    24   ar
     4    24    25   ar
     5    25    26   ar
     6    26    27   ar
     7    27    28   ar
     8    28    22    1
     9    22    21    1
    10    21     1    1
    11     1     2   ar
    12     2     3   ar
    13     3     4   ar
    14     4     7    1
    15     7     8    1
    16     8     9    1
    17     9    10    1
    18    10    11   am
    19    11    12    2
    20    11    15    1
    21    15    16    1
    22    16    17    1
    23    17    18    1
    24    17    19    1
    25    17    20    1
    26    10    13    1
    27    13    14    1
    28     4     5   ar
    29     5     6   ar
    30    28    23   ar
    31     6     1   ar
    32    14     7    1
@<TRIPOS>MOLECULE
*****
 30 32 0 0 0
SMALL
GASTEIGER

@<TRIPOS>ATOM
      1 C         142.5174  142.3578  165.4051 C.ar    1  UNL1        0.1773
      2 C         143.4321  142.0896  164.2469 C.ar    1  UNL1        0.1402
      3 N         143.1249  142.6703  162.8985 N.ar    1  UNL1       -0.2089
      4 C         141.9030  143.5192  162.7083 C.ar    1  UNL1        0.2205
      5 N         140.9883  143.7874  163.8665 N.ar    1  UNL1       -0.2089
      6 C         141.2955  143.2067  165.2149 C.ar    1  UNL1        0.1402
      7 N         141.5957  144.1000  161.3598 N.pl3   1  UNL1       -0.2747
      8 C         140.5403  145.1569  161.2212 C.3     1  UNL1        0.1152
      9 C         140.2330  145.7376  159.8728 C.3     1  UNL1        0.1182
     10 N         140.9811  145.2615  158.6630 N.am    1  UNL1       -0.2425
     11 C         140.6738  145.8423  157.3145 C.2     1  UNL1        0.4052
     12 O         141.4218  145.3661  156.1047 O.2     1  UNL1       -0.2262
     13 C         142.0364  144.2046  158.8016 C.3     1  UNL1        0.1182
     14 C         142.3437  143.6238  160.1500 C.3     1  UNL1        0.1152
     15 O         139.6184  146.8992  157.1759 O.3     1  UNL1       -0.4252
     16 C         138.9464  147.1191  155.8530 C.3     1  UNL1        0.3125
     17 C         139.2519  148.3500  155.0521 C.3     1  UNL1        0.4382
     18 F         139.5573  149.5810  154.2512 F       1  UNL1       -0.1663
     19 F         138.3270  149.1467  155.9238 F       1  UNL1       -0.1663
     20 F         140.1768  147.5534  154.1804 F       1  UNL1       -0.1663
     21 O         142.8247  141.7770  166.7536 O.3     1  UNL1       -0.4675
     22 C         141.7824  140.9826  167.4833 C.3     1  UNL1        0.2329
     23 C         141.5827  140.6420  170.0512 C.ar    1  UNL1        0.0871
     24 C         141.0859  141.1058  171.3884 C.ar    1  UNL1        0.1089
     25 N         140.2921  142.3741  171.4948 N.ar    1  UNL1       -0.2416
     26 C         139.9951  143.1785  170.2642 C.ar    1  UNL1        0.0987
     27 C         140.4918  142.7147  168.9270 C.ar    1  UNL1        0.0207
     28 C         141.2856  141.4464  168.8205 C.ar    1  UNL1        0.0339
     29 N         143.1703  138.1054  169.8382 N.1     1  UNL1       -0.1908
     30 C         142.3765  139.3737  169.9447 C.1     1  UNL1        0.1018
@<TRIPOS>BOND
     1    29    30    3
     2    30    23    1
     3    23    24   ar
     4    24    25   ar
     5    25    26   ar
     6    26    27   ar
     7    27    28   ar
     8    28    22    1
     9    22    21    1
    10    21     1    1
    11     1     2   ar
    12     2     3   ar
    13     3     4   ar
    14     4     7    1
    15     7     8    1
    16     8     9    1
    17     9    10    1
    18    10    11   am
    19    11    12    2
    20    11    15    1
    21    15    16    1
    22    16    17    1
    23    17    18    1
    24    17    19    1
    25    17    20    1
    26    10    13    1
    27    13    14    1
    28     4     5   ar
    29     5     6   ar
    30    28    23   ar
    31     6     1   ar
    32    14     7    1
@<TRIPOS>MOLECULE
*****
 30 32 0 0 0
SMALL
GASTEIGER

@<TRIPOS>ATOM
      1 C         139.0202  138.9415  160.5811 C.ar    1  UNL1        0.1773
      2 C         137.8772  139.6144  161.2818 C.ar    1  UNL1        0.1402
      3 N         137.9646  139.9052  162.7507 N.ar    1  UNL1       -0.2089
      4 C         139.1950  139.5232  163.5190 C.ar    1  UNL1        0.2205
      5 N         140.3379  138.8503  162.8183 N.ar    1  UNL1       -0.2089
      6 C         140.2506  138.5595  161.3494 C.ar    1  UNL1        0.1402
      7 N         139.2824  139.8140  164.9880 N.pl3   1  UNL1       -0.2747
      8 C         140.1676  140.9195  165.4822 C.3     1  UNL1        0.1152
      9 C         140.2551  141.2103  166.9511 C.3     1  UNL1        0.1182
     10 N         139.4574  140.3956  167.9258 N.am    1  UNL1       -0.2425
     11 C         139.5448  140.6864  169.3947 C.2     1  UNL1        0.4052
     12 O         138.7471  139.8718  170.3694 O.2     1  UNL1       -0.2262
     13 C         138.5722  139.2901  167.4315 C.3     1  UNL1        0.1182
     14 C         138.4847  138.9993  165.9626 C.3     1  UNL1        0.1152
     15 O         140.4300  141.7919  169.8890 O.3     1  UNL1       -0.4252
     16 C         141.7694  141.4714  170.4833 C.3     1  UNL1        0.3125
     17 C         143.0180  142.0181  169.8570 C.3     1  UNL1        0.4382
     18 F         144.2666  142.5648  169.2308 F       1  UNL1       -0.1663
     19 F         142.7558  143.3494  170.4964 F       1  UNL1       -0.1663
     20 F         143.2803  140.6868  169.2176 F       1  UNL1       -0.1663
     21 O         138.9327  138.6507  159.1121 O.3     1  UNL1       -0.4675
     22 C         140.0794  138.9974  158.2094 C.3     1  UNL1        0.2329
     23 C         142.1403  137.5291  157.6205 C.ar    1  UNL1        0.0871
     24 C         142.7793  136.4656  156.7776 C.ar    1  UNL1        0.1089
     25 N         141.9965  135.8067  155.6808 N.ar    1  UNL1       -0.2416
     26 C         140.5746  136.2113  155.4269 C.ar    1  UNL1        0.0987
     27 C         139.9356  137.2748  156.2697 C.ar    1  UNL1        0.0207
     28 C         140.7185  137.9338  157.3665 C.ar    1  UNL1        0.0339
     29 N         143.7061  138.8469  159.8140 N.1     1  UNL1       -0.1908
     30 C         142.9232  138.1880  158.7172 C.1     1  UNL1        0.1018
@<TRIPOS>BOND
     1    29    30    3
     2    30    23    1
     3    23    24   ar
     4    24    25   ar
     5    25    26   ar
     6    26    27   ar
     7    27    28   ar
     8    28    22    1
     9    22    21    1
    10    21     1    1
    11     1     2   ar
    12     2     3   ar
    13     3     4   ar
    14     4     7    1
    15     7     8    1
    16     8     9    1
    17     9    10    1
    18    10    11   am
    19    11    12    2
    20    11    15    1
    21    15    16    1
    22    16    17    1
    23    17    18    1
    24    17    19    1
    25    17    20    1
    26    10    13    1
    27    13    14    1
    28     4     5   ar
    29     5     6   ar
    30    28    23   ar
    31     6     1   ar
    32    14     7    1
@<TRIPOS>MOLECULE
*****
 30 32 0 0 0
SMALL
GASTEIGER

@<TRIPOS>ATOM
      1 C         139.1507  138.5684  160.8336 C.ar    1  UNL1        0.1773
      2 C         140.3569  138.1106  161.5987 C.ar    1  UNL1        0.1402
      3 N         140.4504  138.3654  163.0739 N.ar    1  UNL1       -0.2089
      4 C         139.3378  139.0781  163.7840 C.ar    1  UNL1        0.2205
      5 N         138.1316  139.5359  163.0188 N.ar    1  UNL1       -0.2089
      6 C         138.0381  139.2811  161.5436 C.ar    1  UNL1        0.1402
      7 N         139.4313  139.3330  165.2592 N.pl3   1  UNL1       -0.2747
      8 C         140.7098  139.8470  165.8519 C.3     1  UNL1        0.1152
      9 C         140.8034  140.1019  167.3271 C.3     1  UNL1        0.1182
     10 N         139.6185  139.8427  168.2096 N.am    1  UNL1       -0.2425
     11 C         139.7120  140.0975  169.6849 C.2     1  UNL1        0.4052
     12 O         138.5271  139.8383  170.5674 O.2     1  UNL1       -0.2262
     13 C         138.3400  139.3286  167.6169 C.3     1  UNL1        0.1182
     14 C         138.2465  139.0738  166.1417 C.3     1  UNL1        0.1152
     15 O         140.9905  140.6116  170.2776 O.3     1  UNL1       -0.4252
     16 C         141.0521  142.0021  170.8368 C.3     1  UNL1        0.3125
     17 C         140.5709  143.1622  170.0168 C.3     1  UNL1        0.4382
     18 F         140.0897  144.3224  169.1968 F       1  UNL1       -0.1663
     19 F         141.8241  143.1011  169.1948 F       1  UNL1       -0.1663
     20 F         139.3176  143.2234  170.8388 F       1  UNL1       -0.1663
     21 O         139.0571  138.3136  159.3583 O.3     1  UNL1       -0.4675
     22 C         139.6868  139.2710  158.3904 C.3     1  UNL1        0.2329
     23 C         141.3762  141.0691  159.2045 C.ar    1  UNL1        0.0871
     24 C         141.6708  142.4778  159.6273 C.ar    1  UNL1        0.1089
     25 N         140.5707  143.4971  159.6587 N.ar    1  UNL1       -0.2416
     26 C         139.1760  143.1076  159.2673 C.ar    1  UNL1        0.0987
     27 C         138.8814  141.6990  158.8446 C.ar    1  UNL1        0.0207
     28 C         139.9815  140.6797  158.8132 C.ar    1  UNL1        0.0339
     29 N         143.5763  139.0306  159.1417 N.1     1  UNL1       -0.1908
     30 C         142.4762  140.0499  159.1731 C.1     1  UNL1        0.1018
@<TRIPOS>BOND
     1    29    30    3
     2    30    23    1
     3    23    24   ar
     4    24    25   ar
     5    25    26   ar
     6    26    27   ar
     7    27    28   ar
     8    28    22    1
     9    22    21    1
    10    21     1    1
    11     1     2   ar
    12     2     3   ar
    13     3     4   ar
    14     4     7    1
    15     7     8    1
    16     8     9    1
    17     9    10    1
    18    10    11   am
    19    11    12    2
    20    11    15    1
    21    15    16    1
    22    16    17    1
    23    17    18    1
    24    17    19    1
    25    17    20    1
    26    10    13    1
    27    13    14    1
    28     4     5   ar
    29     5     6   ar
    30    28    23   ar
    31     6     1   ar
    32    14     7    1
@<TRIPOS>MOLECULE
*****
 30 32 0 0 0
SMALL
GASTEIGER

@<TRIPOS>ATOM
      1 C         141.4613  137.2220  156.0046 C.ar    1  UNL1        0.1773
      2 C         142.4764  137.4750  157.0796 C.ar    1  UNL1        0.1402
      3 N         142.0468  138.0516  158.3960 N.ar    1  UNL1       -0.2089
      4 C         140.6021  138.3753  158.6374 C.ar    1  UNL1        0.2205
      5 N         139.5871  138.1223  157.5623 N.ar    1  UNL1       -0.2089
      6 C         140.0167  137.5457  156.2459 C.ar    1  UNL1        0.1402
      7 N         140.1725  138.9519  159.9538 N.pl3   1  UNL1       -0.2747
      8 C         139.2394  138.1823  160.8410 C.3     1  UNL1        0.1152
      9 C         138.8098  138.7588  162.1574 C.3     1  UNL1        0.1182
     10 N         139.3131  140.1051  162.5866 N.am    1  UNL1       -0.2425
     11 C         138.8835  140.6817  163.9030 C.2     1  UNL1        0.4052
     12 O         139.3869  142.0279  164.3322 O.2     1  UNL1       -0.2262
     13 C         140.2462  140.8747  161.6994 C.3     1  UNL1        0.1182
     14 C         140.6759  140.2981  160.3830 C.3     1  UNL1        0.1152
     15 O         137.9504  139.9121  164.7902 O.3     1  UNL1       -0.4252
     16 C         138.4533  139.3197  166.0732 C.3     1  UNL1        0.3125
     17 C         137.9369  137.9906  166.5388 C.3     1  UNL1        0.4382
     18 F         137.4204  136.6615  167.0044 F       1  UNL1       -0.1663
     19 F         137.3165  138.6505  167.7345 F       1  UNL1       -0.1663
     20 F         138.5572  137.3307  165.3431 F       1  UNL1       -0.1663
     21 O         141.8910  136.6454  154.6881 O.3     1  UNL1       -0.4675
     22 C         142.8401  135.4844  154.6519 C.3     1  UNL1        0.2329
     23 C         142.4185  133.1617  155.7369 C.ar    1  UNL1        0.0871
     24 C         141.8878  131.7618  155.6444 C.ar    1  UNL1        0.1089
     25 N         141.2480  131.2846  154.3743 N.ar    1  UNL1       -0.2416
     26 C         141.1389  132.2074  153.1968 C.ar    1  UNL1        0.0987
     27 C         141.6695  133.6073  153.2893 C.ar    1  UNL1        0.0207
     28 C         142.3094  134.0844  154.5594 C.ar    1  UNL1        0.0339
     29 N         143.6981  134.1160  158.2769 N.1     1  UNL1       -0.1908
     30 C         143.0583  133.6388  157.0069 C.1     1  UNL1        0.1018
@<TRIPOS>BOND
     1    29    30    3
     2    30    23    1
     3    23    24   ar
     4    24    25   ar
     5    25    26   ar
     6    26    27   ar
     7    27    28   ar
     8    28    22    1
     9    22    21    1
    10    21     1    1
    11     1     2   ar
    12     2     3   ar
    13     3     4   ar
    14     4     7    1
    15     7     8    1
    16     8     9    1
    17     9    10    1
    18    10    11   am
    19    11    12    2
    20    11    15    1
    21    15    16    1
    22    16    17    1
    23    17    18    1
    24    17    19    1
    25    17    20    1
    26    10    13    1
    27    13    14    1
    28     4     5   ar
    29     5     6   ar
    30    28    23   ar
    31     6     1   ar
    32    14     7    1
