@<TRIPOS>MOLECULE
*****
 30 34 0 0 0
SMALL
GASTEIGER

@<TRIPOS>ATOM
      1 C         139.5891  139.8687  166.8104 C.ar    1  UNL1        0.0855
      2 C         138.9718  140.7243  165.7442 C.ar    1  UNL1        0.0193
      3 C         139.6782  140.9174  164.4351 C.ar    1  UNL1        0.0030
      4 C         141.0019  140.2550  164.1923 C.ar    1  UNL1        0.0174
      5 C         141.7083  140.4482  162.8831 C.ar    1  UNL1       -0.0027
      6 C         143.0320  139.7857  162.6403 C.ar    1  UNL1       -0.0207
      7 C         143.6493  138.9301  163.7066 C.ar    1  UNL1       -0.0027
      8 C         142.9429  138.7369  165.0156 C.ar    1  UNL1        0.0188
      9 C         141.6192  139.3994  165.2585 C.ar    1  UNL1        0.0812
     10 N         140.9128  139.2063  166.5675 N.ar    1  UNL1       -0.2452
     11 C         136.9740  137.9839  167.3193 C.3     1  UNL1        0.0754
     12 C         137.6807  138.8092  168.3534 C.ar    1  UNL1        0.1562
     13 O         137.3095  138.9131  169.8030 O.2     1  UNL1       -0.3577
     14 N         138.2820  139.8436  170.4651 N.ar    1  UNL1       -0.0773
     15 C         139.2543  140.3148  169.4246 C.ar    1  UNL1        0.1240
     16 C         138.8827  139.6756  168.1195 C.ar    1  UNL1        0.0713
     17 C         140.3975  141.2595  169.6497 C.ar    1  UNL1        0.0210
     18 C         140.1390  142.7306  169.7870 C.ar    1  UNL1        0.0016
     19 C         141.2822  143.6753  170.0121 C.ar    1  UNL1        0.0000
     20 C         142.6841  143.1488  170.1000 C.ar    1  UNL1        0.0000
     21 C         142.9427  141.6776  169.9627 C.ar    1  UNL1        0.0000
     22 C         141.7994  140.7330  169.7376 C.ar    1  UNL1        0.0016
     23 C         143.7383  139.9788  161.3312 C.3     1  UNL1        0.0437
     24 C         144.3593  141.3041  161.0024 C.3     1  UNL1        0.0768
     25 N         144.0677  142.5017  161.8572 N.3     1  UNL1       -0.2737
     26 C         143.1155  143.6119  161.5242 C.3     1  UNL1        0.0721
     27 C         143.1364  144.5957  162.6563 C.3     1  UNL1        0.0187
     28 C         144.1016  144.0936  163.6890 C.3     1  UNL1        0.0174
     29 C         144.6771  142.7994  163.1951 C.3     1  UNL1        0.0576
     30 C         145.6851  141.9519  163.9131 C.3     1  UNL1        0.0173
@<TRIPOS>BOND
     1    11    12    1
     2    12    13   ar
     3    13    14   ar
     4    14    15   ar
     5    15    17    1
     6    17    18   ar
     7    18    19   ar
     8    19    20   ar
     9    20    21   ar
    10    21    22   ar
    11    15    16   ar
    12    16     1    1
    13     1     2   ar
    14     2     3   ar
    15     3     4   ar
    16     4     5   ar
    17     5     6   ar
    18     6    23    1
    19    23    24    1
    20    24    25    1
    21    25    26    1
    22    26    27    1
    23    27    28    1
    24    28    29    1
    25    29    30    1
    26     6     7   ar
    27     7     8   ar
    28     8     9   ar
    29     9    10   ar
    30    16    12   ar
    31    10     1   ar
    32    22    17   ar
    33     9     4   ar
    34    29    25    1
@<TRIPOS>MOLECULE
*****
 30 34 0 0 0
SMALL
GASTEIGER

@<TRIPOS>ATOM
      1 C         139.3744  140.1983  163.7681 C.ar    1  UNL1        0.0855
      2 C         138.3910  140.3855  164.8851 C.ar    1  UNL1        0.0193
      3 C         138.8243  140.1856  166.3071 C.ar    1  UNL1        0.0030
      4 C         140.2410  139.7984  166.6122 C.ar    1  UNL1        0.0174
      5 C         140.6742  139.5985  168.0343 C.ar    1  UNL1       -0.0027
      6 C         142.0909  139.2113  168.3394 C.ar    1  UNL1       -0.0207
      7 C         143.0744  139.0241  167.2223 C.ar    1  UNL1       -0.0027
      8 C         142.6411  139.2240  165.8002 C.ar    1  UNL1        0.0188
      9 C         141.2244  139.6112  165.4952 C.ar    1  UNL1        0.0812
     10 N         140.7911  139.8111  164.0731 N.ar    1  UNL1       -0.2452
     11 C         137.8715  137.9909  161.8922 C.3     1  UNL1        0.0754
     12 C         138.2504  139.3836  161.4838 C.ar    1  UNL1        0.1562
     13 O         138.0050  140.0062  160.1413 O.2     1  UNL1       -0.3577
     14 N         138.5441  141.4057  160.1738 N.ar    1  UNL1       -0.0773
     15 C         139.1227  141.6479  161.5364 C.ar    1  UNL1        0.1240
     16 C         138.9412  140.3982  162.3460 C.ar    1  UNL1        0.0713
     17 C         139.7693  142.9170  162.0068 C.ar    1  UNL1        0.0210
     18 C         139.0309  143.8359  162.9342 C.ar    1  UNL1        0.0016
     19 C         139.6775  145.1050  163.4046 C.ar    1  UNL1        0.0000
     20 C         141.0626  145.4552  162.9475 C.ar    1  UNL1        0.0000
     21 C         141.8011  144.5363  162.0200 C.ar    1  UNL1        0.0000
     22 C         141.1544  143.2672  161.5496 C.ar    1  UNL1        0.0016
     23 C         142.5242  139.0113  169.7614 C.3     1  UNL1        0.0437
     24 C         142.5860  140.1813  170.6982 C.3     1  UNL1        0.0768
     25 N         141.7588  141.4030  170.4279 N.3     1  UNL1       -0.2737
     26 C         140.4475  141.7405  171.0734 C.3     1  UNL1        0.0721
     27 C         139.9759  143.0479  170.5091 C.3     1  UNL1        0.0187
     28 C         140.9959  143.5184  169.5149 C.3     1  UNL1        0.0174
     29 C         142.0977  142.5018  169.4648 C.3     1  UNL1        0.0576
     30 C         143.3233  142.5718  168.6028 C.3     1  UNL1        0.0173
@<TRIPOS>BOND
     1    11    12    1
     2    12    13   ar
     3    13    14   ar
     4    14    15   ar
     5    15    17    1
     6    17    18   ar
     7    18    19   ar
     8    19    20   ar
     9    20    21   ar
    10    21    22   ar
    11    15    16   ar
    12    16     1    1
    13     1     2   ar
    14     2     3   ar
    15     3     4   ar
    16     4     5   ar
    17     5     6   ar
    18     6    23    1
    19    23    24    1
    20    24    25    1
    21    25    26    1
    22    26    27    1
    23    27    28    1
    24    28    29    1
    25    29    30    1
    26     6     7   ar
    27     7     8   ar
    28     8     9   ar
    29     9    10   ar
    30    16    12   ar
    31    10     1   ar
    32    22    17   ar
    33     9     4   ar
    34    29    25    1
@<TRIPOS>MOLECULE
*****
 30 34 0 0 0
SMALL
GASTEIGER

@<TRIPOS>ATOM
      1 C         140.4393  142.5161  166.8879 C.ar    1  UNL1        0.0855
      2 C         141.8483  142.5550  166.3750 C.ar    1  UNL1        0.0193
      3 C         142.1517  143.2218  165.0661 C.ar    1  UNL1        0.0030
      4 C         141.0462  143.8496  164.2701 C.ar    1  UNL1        0.0174
      5 C         141.3497  144.5164  162.9611 C.ar    1  UNL1       -0.0027
      6 C         140.2442  145.1443  162.1652 C.ar    1  UNL1       -0.0207
      7 C         138.8351  145.1053  162.6781 C.ar    1  UNL1       -0.0027
      8 C         138.5316  144.4385  163.9870 C.ar    1  UNL1        0.0188
      9 C         139.6372  143.8107  164.7830 C.ar    1  UNL1        0.0812
     10 N         139.3337  143.1439  166.0919 N.ar    1  UNL1       -0.2452
     11 C         140.7005  143.8795  169.8413 C.3     1  UNL1        0.0754
     12 C         140.2558  142.4759  169.5544 C.ar    1  UNL1        0.1562
     13 O         139.8531  141.4527  170.5746 O.2     1  UNL1       -0.3577
     14 N         139.4842  140.1935  169.8476 N.ar    1  UNL1       -0.0773
     15 C         139.6588  140.4387  168.3781 C.ar    1  UNL1        0.1240
     16 C         140.1357  141.8493  168.1969 C.ar    1  UNL1        0.0713
     17 C         139.4017  139.4472  167.2822 C.ar    1  UNL1        0.0210
     18 C         138.1042  138.6958  167.2399 C.ar    1  UNL1        0.0016
     19 C         137.8471  137.7043  166.1440 C.ar    1  UNL1        0.0000
     20 C         138.8875  137.4644  165.0904 C.ar    1  UNL1        0.0000
     21 C         140.1851  138.2159  165.1327 C.ar    1  UNL1        0.0000
     22 C         140.4421  139.2073  166.2286 C.ar    1  UNL1        0.0016
     23 C         140.5476  145.8111  160.8563 C.3     1  UNL1        0.0437
     24 C         140.4486  145.0332  159.5775 C.3     1  UNL1        0.0768
     25 N         140.8940  143.6015  159.5341 N.3     1  UNL1       -0.2737
     26 C         142.2845  143.1191  159.2444 C.3     1  UNL1        0.0721
     27 C         142.2770  141.6203  159.3041 C.3     1  UNL1        0.0187
     28 C         140.8819  141.1764  159.6307 C.3     1  UNL1        0.0174
     29 C         140.0272  142.4009  159.7728 C.3     1  UNL1        0.0576
     30 C         138.5627  142.4211  160.0968 C.3     1  UNL1        0.0173
@<TRIPOS>BOND
     1    11    12    1
     2    12    13   ar
     3    13    14   ar
     4    14    15   ar
     5    15    17    1
     6    17    18   ar
     7    18    19   ar
     8    19    20   ar
     9    20    21   ar
    10    21    22   ar
    11    15    16   ar
    12    16     1    1
    13     1     2   ar
    14     2     3   ar
    15     3     4   ar
    16     4     5   ar
    17     5     6   ar
    18     6    23    1
    19    23    24    1
    20    24    25    1
    21    25    26    1
    22    26    27    1
    23    27    28    1
    24    28    29    1
    25    29    30    1
    26     6     7   ar
    27     7     8   ar
    28     8     9   ar
    29     9    10   ar
    30    16    12   ar
    31    10     1   ar
    32    22    17   ar
    33     9     4   ar
    34    29    25    1
@<TRIPOS>MOLECULE
*****
 30 34 0 0 0
SMALL
GASTEIGER

@<TRIPOS>ATOM
      1 C         140.5644  140.7768  165.7912 C.ar    1  UNL1        0.0855
      2 C         140.4692  142.2492  165.5212 C.ar    1  UNL1        0.0193
      3 C         141.3153  142.8716  164.4504 C.ar    1  UNL1        0.0030
      4 C         142.2566  142.0215  163.6496 C.ar    1  UNL1        0.0174
      5 C         143.1027  142.6440  162.5787 C.ar    1  UNL1       -0.0027
      6 C         144.0441  141.7940  161.7778 C.ar    1  UNL1       -0.0207
      7 C         144.1392  140.3215  162.0479 C.ar    1  UNL1       -0.0027
      8 C         143.2931  139.6991  163.1187 C.ar    1  UNL1        0.0188
      9 C         142.3518  140.5491  163.9195 C.ar    1  UNL1        0.0812
     10 N         141.5057  139.9268  164.9904 N.ar    1  UNL1       -0.2452
     11 C         138.1470  138.6351  165.3233 C.3     1  UNL1        0.0754
     12 C         138.6071  139.1699  166.6470 C.ar    1  UNL1        0.1562
     13 O         138.0369  138.8143  167.9880 O.2     1  UNL1       -0.3577
     14 N         138.7956  139.5789  169.0320 N.ar    1  UNL1       -0.0773
     15 C         139.8347  140.4071  168.3361 C.ar    1  UNL1        0.1240
     16 C         139.7182  140.1544  166.8621 C.ar    1  UNL1        0.0713
     17 C         140.8177  141.3267  168.9979 C.ar    1  UNL1        0.0210
     18 C         140.3976  142.7089  169.4015 C.ar    1  UNL1        0.0016
     19 C         141.3806  143.6284  170.0634 C.ar    1  UNL1        0.0000
     20 C         142.7839  143.1657  170.3218 C.ar    1  UNL1        0.0000
     21 C         143.2041  141.7834  169.9182 C.ar    1  UNL1        0.0000
     22 C         142.2210  140.8640  169.2563 C.ar    1  UNL1        0.0016
     23 C         144.8902  142.4163  160.7070 C.3     1  UNL1        0.0437
     24 C         144.2986  142.7115  159.3605 C.3     1  UNL1        0.0768
     25 N         144.7657  141.9532  158.1536 N.3     1  UNL1       -0.2737
     26 C         145.8332  142.3918  157.1954 C.3     1  UNL1        0.0721
     27 C         145.9746  141.3328  156.1425 C.3     1  UNL1        0.0187
     28 C         144.9944  140.2397  156.4500 C.3     1  UNL1        0.0174
     29 C         144.2473  140.6232  157.6929 C.3     1  UNL1        0.0576
     30 C         143.1708  139.8179  158.3582 C.3     1  UNL1        0.0173
@<TRIPOS>BOND
     1    11    12    1
     2    12    13   ar
     3    13    14   ar
     4    14    15   ar
     5    15    17    1
     6    17    18   ar
     7    18    19   ar
     8    19    20   ar
     9    20    21   ar
    10    21    22   ar
    11    15    16   ar
    12    16     1    1
    13     1     2   ar
    14     2     3   ar
    15     3     4   ar
    16     4     5   ar
    17     5     6   ar
    18     6    23    1
    19    23    24    1
    20    24    25    1
    21    25    26    1
    22    26    27    1
    23    27    28    1
    24    28    29    1
    25    29    30    1
    26     6     7   ar
    27     7     8   ar
    28     8     9   ar
    29     9    10   ar
    30    16    12   ar
    31    10     1   ar
    32    22    17   ar
    33     9     4   ar
    34    29    25    1
@<TRIPOS>MOLECULE
*****
 30 34 0 0 0
SMALL
GASTEIGER

@<TRIPOS>ATOM
      1 C         140.7993  140.1299  166.1010 C.ar    1  UNL1        0.0855
      2 C         141.8191  139.1040  165.7039 C.ar    1  UNL1        0.0193
      3 C         142.8115  139.4127  164.6224 C.ar    1  UNL1        0.0030
      4 C         142.7843  140.7471  163.9380 C.ar    1  UNL1        0.0174
      5 C         143.7768  141.0557  162.8564 C.ar    1  UNL1       -0.0027
      6 C         143.7496  142.3902  162.1720 C.ar    1  UNL1       -0.0207
      7 C         142.7298  143.4161  162.5692 C.ar    1  UNL1       -0.0027
      8 C         141.7373  143.1075  163.6507 C.ar    1  UNL1        0.0188
      9 C         141.7646  141.7730  164.3351 C.ar    1  UNL1        0.0812
     10 N         140.7721  141.4644  165.4166 N.ar    1  UNL1       -0.2452
     11 C         138.1459  138.2554  165.7916 C.3     1  UNL1        0.0754
     12 C         138.5872  138.9597  167.0403 C.ar    1  UNL1        0.1562
     13 O         137.8863  138.9260  168.3660 O.2     1  UNL1       -0.3577
     14 N         138.6727  139.7669  169.3277 N.ar    1  UNL1       -0.0773
     15 C         139.8596  140.3201  168.5962 C.ar    1  UNL1        0.1240
     16 C         139.8068  139.8213  167.1825 C.ar    1  UNL1        0.0713
     17 C         140.9143  141.2151  169.1765 C.ar    1  UNL1        0.0210
     18 C         142.3093  140.7004  169.3737 C.ar    1  UNL1        0.0016
     19 C         143.3639  141.5954  169.9540 C.ar    1  UNL1        0.0000
     20 C         143.0235  143.0051  170.3371 C.ar    1  UNL1        0.0000
     21 C         141.6284  143.5199  170.1399 C.ar    1  UNL1        0.0000
     22 C         140.5739  142.6248  169.5596 C.ar    1  UNL1        0.0016
     23 C         144.7421  142.6989  161.0905 C.3     1  UNL1        0.0437
     24 C         144.3971  142.4273  159.6562 C.3     1  UNL1        0.0768
     25 N         143.4000  141.3603  159.3137 N.3     1  UNL1       -0.2737
     26 C         143.6999  139.9039  159.1163 C.3     1  UNL1        0.0721
     27 C         142.4132  139.2059  158.7890 C.3     1  UNL1        0.0187
     28 C         141.3180  140.2310  158.7842 C.3     1  UNL1        0.0174
     29 C         141.9279  141.5624  159.1085 C.3     1  UNL1        0.0576
     30 C         141.1945  142.8670  159.2097 C.3     1  UNL1        0.0173
@<TRIPOS>BOND
     1    11    12    1
     2    12    13   ar
     3    13    14   ar
     4    14    15   ar
     5    15    17    1
     6    17    18   ar
     7    18    19   ar
     8    19    20   ar
     9    20    21   ar
    10    21    22   ar
    11    15    16   ar
    12    16     1    1
    13     1     2   ar
    14     2     3   ar
    15     3     4   ar
    16     4     5   ar
    17     5     6   ar
    18     6    23    1
    19    23    24    1
    20    24    25    1
    21    25    26    1
    22    26    27    1
    23    27    28    1
    24    28    29    1
    25    29    30    1
    26     6     7   ar
    27     7     8   ar
    28     8     9   ar
    29     9    10   ar
    30    16    12   ar
    31    10     1   ar
    32    22    17   ar
    33     9     4   ar
    34    29    25    1
@<TRIPOS>MOLECULE
*****
 30 34 0 0 0
SMALL
GASTEIGER

@<TRIPOS>ATOM
      1 C         140.5946  140.8820  165.9847 C.ar    1  UNL1        0.0855
      2 C         140.3801  142.3156  165.5994 C.ar    1  UNL1        0.0193
      3 C         141.1970  142.9271  164.5001 C.ar    1  UNL1        0.0030
      4 C         142.2285  142.1049  163.7859 C.ar    1  UNL1        0.0174
      5 C         143.0454  142.7164  162.6865 C.ar    1  UNL1       -0.0027
      6 C         144.0769  141.8942  161.9723 C.ar    1  UNL1       -0.0207
      7 C         144.2914  140.4604  162.3576 C.ar    1  UNL1       -0.0027
      8 C         143.4745  139.8490  163.4570 C.ar    1  UNL1        0.0188
      9 C         142.4430  140.6712  164.1712 C.ar    1  UNL1        0.0812
     10 N         141.6261  140.0597  165.2705 N.ar    1  UNL1       -0.2452
     11 C         138.0933  138.8221  165.5975 C.3     1  UNL1        0.0754
     12 C         138.6280  139.3236  166.9061 C.ar    1  UNL1        0.1562
     13 O         138.1068  138.9664  168.2665 O.2     1  UNL1       -0.3577
     14 N         138.9344  139.6924  169.2854 N.ar    1  UNL1       -0.0773
     15 C         139.9670  140.4984  168.5546 C.ar    1  UNL1        0.1240
     16 C         139.7777  140.2704  167.0841 C.ar    1  UNL1        0.0713
     17 C         141.0066  141.3778  169.1838 C.ar    1  UNL1        0.0210
     18 C         140.6290  142.7352  169.6983 C.ar    1  UNL1        0.0016
     19 C         141.6686  143.6147  170.3275 C.ar    1  UNL1        0.0000
     20 C         143.0858  143.1367  170.4422 C.ar    1  UNL1        0.0000
     21 C         143.4634  141.7792  169.9276 C.ar    1  UNL1        0.0000
     22 C         142.4238  140.8999  169.2984 C.ar    1  UNL1        0.0016
     23 C         144.8938  142.5057  160.8730 C.3     1  UNL1        0.0437
     24 C         144.3816  142.4951  159.4631 C.3     1  UNL1        0.0768
     25 N         142.9531  142.1304  159.1869 N.3     1  UNL1       -0.2737
     26 C         141.7970  143.0838  159.1189 C.3     1  UNL1        0.0721
     27 C         140.5593  142.2910  158.8201 C.3     1  UNL1        0.0187
     28 C         140.9504  140.8475  158.7035 C.3     1  UNL1        0.0174
     29 C         142.4298  140.7483  158.9302 C.3     1  UNL1        0.0576
     30 C         143.2431  139.4883  158.9046 C.3     1  UNL1        0.0173
@<TRIPOS>BOND
     1    11    12    1
     2    12    13   ar
     3    13    14   ar
     4    14    15   ar
     5    15    17    1
     6    17    18   ar
     7    18    19   ar
     8    19    20   ar
     9    20    21   ar
    10    21    22   ar
    11    15    16   ar
    12    16     1    1
    13     1     2   ar
    14     2     3   ar
    15     3     4   ar
    16     4     5   ar
    17     5     6   ar
    18     6    23    1
    19    23    24    1
    20    24    25    1
    21    25    26    1
    22    26    27    1
    23    27    28    1
    24    28    29    1
    25    29    30    1
    26     6     7   ar
    27     7     8   ar
    28     8     9   ar
    29     9    10   ar
    30    16    12   ar
    31    10     1   ar
    32    22    17   ar
    33     9     4   ar
    34    29    25    1
@<TRIPOS>MOLECULE
*****
 30 34 0 0 0
SMALL
GASTEIGER

@<TRIPOS>ATOM
      1 C         141.6623  141.5744  166.4578 C.ar    1  UNL1        0.0855
      2 C         140.2282  141.9499  166.6861 C.ar    1  UNL1        0.0193
      3 C         139.5940  143.0274  165.8575 C.ar    1  UNL1        0.0030
      4 C         140.3939  143.7296  164.8007 C.ar    1  UNL1        0.0174
      5 C         139.7596  144.8072  163.9721 C.ar    1  UNL1       -0.0027
      6 C         140.5596  145.5094  162.9152 C.ar    1  UNL1       -0.0207
      7 C         141.9938  145.1339  162.6869 C.ar    1  UNL1       -0.0027
      8 C         142.6280  144.0564  163.5154 C.ar    1  UNL1        0.0188
      9 C         141.8281  143.3542  164.5723 C.ar    1  UNL1        0.0812
     10 N         142.4623  142.2766  165.4009 N.ar    1  UNL1       -0.2452
     11 C         142.3177  141.7445  169.6502 C.3     1  UNL1        0.0754
     12 C         142.5978  140.5750  168.7537 C.ar    1  UNL1        0.1562
     13 O         143.2284  139.2783  169.1672 O.2     1  UNL1       -0.3577
     14 N         143.3169  138.3987  167.9554 N.ar    1  UNL1       -0.0773
     15 C         142.7410  139.1518  166.7930 C.ar    1  UNL1        0.1240
     16 C         142.2966  140.4968  167.2863 C.ar    1  UNL1        0.0713
     17 C         142.6292  138.6482  165.3845 C.ar    1  UNL1        0.0210
     18 C         143.6529  139.0452  164.3625 C.ar    1  UNL1        0.0016
     19 C         143.5410  138.5416  162.9540 C.ar    1  UNL1        0.0000
     20 C         142.4055  137.6410  162.5674 C.ar    1  UNL1        0.0000
     21 C         141.3817  137.2440  163.5894 C.ar    1  UNL1        0.0000
     22 C         141.4936  137.7476  164.9979 C.ar    1  UNL1        0.0016
     23 C         139.9254  146.5870  162.0866 C.3     1  UNL1        0.0437
     24 C         139.3838  146.2655  160.7252 C.3     1  UNL1        0.0768
     25 N         140.0740  145.2495  159.8642 N.3     1  UNL1       -0.2737
     26 C         141.1317  145.5347  158.8395 C.3     1  UNL1        0.0721
     27 C         141.5391  144.2313  158.2187 C.3     1  UNL1        0.0187
     28 C         140.7332  143.1406  158.8598 C.3     1  UNL1        0.0174
     29 C         139.8277  143.7699  159.8768 C.3     1  UNL1        0.0576
     30 C         138.8480  143.0466  160.7525 C.3     1  UNL1        0.0173
@<TRIPOS>BOND
     1    11    12    1
     2    12    13   ar
     3    13    14   ar
     4    14    15   ar
     5    15    17    1
     6    17    18   ar
     7    18    19   ar
     8    19    20   ar
     9    20    21   ar
    10    21    22   ar
    11    15    16   ar
    12    16     1    1
    13     1     2   ar
    14     2     3   ar
    15     3     4   ar
    16     4     5   ar
    17     5     6   ar
    18     6    23    1
    19    23    24    1
    20    24    25    1
    21    25    26    1
    22    26    27    1
    23    27    28    1
    24    28    29    1
    25    29    30    1
    26     6     7   ar
    27     7     8   ar
    28     8     9   ar
    29     9    10   ar
    30    16    12   ar
    31    10     1   ar
    32    22    17   ar
    33     9     4   ar
    34    29    25    1
@<TRIPOS>MOLECULE
*****
 30 34 0 0 0
SMALL
GASTEIGER

@<TRIPOS>ATOM
      1 C         142.5478  141.2743  165.7585 C.ar    1  UNL1        0.0855
      2 C         143.4363  142.4804  165.6824 C.ar    1  UNL1        0.0193
      3 C         143.1149  143.5894  164.7250 C.ar    1  UNL1        0.0030
      4 C         141.9049  143.4925  163.8438 C.ar    1  UNL1        0.0174
      5 C         141.5835  144.6017  162.8864 C.ar    1  UNL1       -0.0027
      6 C         140.3736  144.5047  162.0052 C.ar    1  UNL1       -0.0207
      7 C         139.4850  143.2985  162.0814 C.ar    1  UNL1       -0.0027
      8 C         139.8064  142.1894  163.0387 C.ar    1  UNL1        0.0188
      9 C         141.0164  142.2864  163.9199 C.ar    1  UNL1        0.0812
     10 N         141.3378  141.1773  164.8773 N.ar    1  UNL1       -0.2452
     11 C         144.2853  138.5968  165.0788 C.3     1  UNL1        0.0754
     12 C         143.6678  138.9344  166.4034 C.ar    1  UNL1        0.1562
     13 O         143.7406  138.1007  167.6482 O.2     1  UNL1       -0.3577
     14 N         142.9869  138.8160  168.7301 N.ar    1  UNL1       -0.0773
     15 C         142.4483  140.0919  168.1538 C.ar    1  UNL1        0.1240
     16 C         142.8692  140.1651  166.7159 C.ar    1  UNL1        0.0713
     17 C         141.6323  141.1150  168.8868 C.ar    1  UNL1        0.0210
     18 C         142.2079  142.4708  169.1702 C.ar    1  UNL1        0.0016
     19 C         141.3918  143.4939  169.9032 C.ar    1  UNL1        0.0000
     20 C         140.0000  143.1612  170.3528 C.ar    1  UNL1        0.0000
     21 C         139.4243  141.8053  170.0694 C.ar    1  UNL1        0.0000
     22 C         140.2404  140.7823  169.3364 C.ar    1  UNL1        0.0016
     23 C         140.0522  145.6138  161.0479 C.3     1  UNL1        0.0437
     24 C         140.4657  145.5068  159.6099 C.3     1  UNL1        0.0768
     25 N         140.4701  144.1707  158.9282 N.3     1  UNL1       -0.2737
     26 C         139.3404  143.5808  158.1371 C.3     1  UNL1        0.0721
     27 C         139.7770  142.2354  157.6378 C.3     1  UNL1        0.0187
     28 C         141.1766  141.9938  158.1204 C.3     1  UNL1        0.0174
     29 C         141.6049  143.1899  158.9179 C.3     1  UNL1        0.0576
     30 C         142.9346  143.3730  159.5874 C.3     1  UNL1        0.0173
@<TRIPOS>BOND
     1    11    12    1
     2    12    13   ar
     3    13    14   ar
     4    14    15   ar
     5    15    17    1
     6    17    18   ar
     7    18    19   ar
     8    19    20   ar
     9    20    21   ar
    10    21    22   ar
    11    15    16   ar
    12    16     1    1
    13     1     2   ar
    14     2     3   ar
    15     3     4   ar
    16     4     5   ar
    17     5     6   ar
    18     6    23    1
    19    23    24    1
    20    24    25    1
    21    25    26    1
    22    26    27    1
    23    27    28    1
    24    28    29    1
    25    29    30    1
    26     6     7   ar
    27     7     8   ar
    28     8     9   ar
    29     9    10   ar
    30    16    12   ar
    31    10     1   ar
    32    22    17   ar
    33     9     4   ar
    34    29    25    1
@<TRIPOS>MOLECULE
*****
 30 34 0 0 0
SMALL
GASTEIGER

@<TRIPOS>ATOM
      1 C         141.8060  140.9358  165.9527 C.ar    1  UNL1        0.0855
      2 C         140.4108  140.7286  165.4424 C.ar    1  UNL1        0.0193
      3 C         139.8416  141.6619  164.4154 C.ar    1  UNL1        0.0030
      4 C         140.6676  142.8024  163.8986 C.ar    1  UNL1        0.0174
      5 C         140.0984  143.7357  162.8715 C.ar    1  UNL1       -0.0027
      6 C         140.9244  144.8762  162.3547 C.ar    1  UNL1       -0.0207
      7 C         142.3197  145.0833  162.8651 C.ar    1  UNL1       -0.0027
      8 C         142.8889  144.1500  163.8922 C.ar    1  UNL1        0.0188
      9 C         142.0628  143.0095  164.4089 C.ar    1  UNL1        0.0812
     10 N         142.6320  142.0762  165.4360 N.ar    1  UNL1       -0.2452
     11 C         143.7021  138.3484  165.3524 C.3     1  UNL1        0.0754
     12 C         143.2467  138.8132  166.7039 C.ar    1  UNL1        0.1562
     13 O         143.5830  138.1703  168.0167 O.2     1  UNL1       -0.3577
     14 N         142.9193  138.9622  169.1042 N.ar    1  UNL1       -0.0773
     15 C         142.1729  140.0945  168.4633 C.ar    1  UNL1        0.1240
     16 C         142.3752  140.0024  166.9799 C.ar    1  UNL1        0.0713
     17 C         141.3657  141.1360  169.1801 C.ar    1  UNL1        0.0210
     18 C         140.0405  140.7746  169.7825 C.ar    1  UNL1        0.0016
     19 C         139.2334  141.8162  170.4993 C.ar    1  UNL1        0.0000
     20 C         139.7515  143.2192  170.6137 C.ar    1  UNL1        0.0000
     21 C         141.0769  143.5807  170.0112 C.ar    1  UNL1        0.0000
     22 C         141.8839  142.5390  169.2944 C.ar    1  UNL1        0.0016
     23 C         140.3552  145.8095  161.3277 C.3     1  UNL1        0.0437
     24 C         139.9214  145.2811  159.9925 C.3     1  UNL1        0.0768
     25 N         140.9411  145.0060  158.9274 N.3     1  UNL1       -0.2737
     26 C         141.2869  145.9119  157.7829 C.3     1  UNL1        0.0721
     27 C         142.3536  145.2426  156.9679 C.3     1  UNL1        0.0187
     28 C         142.6670  143.9230  157.6087 C.3     1  UNL1        0.0174
     29 C         141.7940  143.7769  158.8197 C.3     1  UNL1        0.0576
     30 C         141.7770  142.6069  159.7583 C.3     1  UNL1        0.0173
@<TRIPOS>BOND
     1    11    12    1
     2    12    13   ar
     3    13    14   ar
     4    14    15   ar
     5    15    17    1
     6    17    18   ar
     7    18    19   ar
     8    19    20   ar
     9    20    21   ar
    10    21    22   ar
    11    15    16   ar
    12    16     1    1
    13     1     2   ar
    14     2     3   ar
    15     3     4   ar
    16     4     5   ar
    17     5     6   ar
    18     6    23    1
    19    23    24    1
    20    24    25    1
    21    25    26    1
    22    26    27    1
    23    27    28    1
    24    28    29    1
    25    29    30    1
    26     6     7   ar
    27     7     8   ar
    28     8     9   ar
    29     9    10   ar
    30    16    12   ar
    31    10     1   ar
    32    22    17   ar
    33     9     4   ar
    34    29    25    1
