@<TRIPOS>MOLECULE
*****
 32 35 0 0 0
SMALL
GASTEIGER

@<TRIPOS>ATOM
      1 C         139.3466  139.7628  168.0144 C.3     1  UNL1        0.0056
      2 C         138.0091  139.2187  167.6077 C.3     1  UNL1        0.0216
      3 C         137.8870  138.3719  166.3756 C.3     1  UNL1        0.0935
      4 O         137.7372  140.7003  164.4898 O.2     1  UNL1       -0.2730
      5 C         138.8166  139.6716  164.3270 C.2     1  UNL1        0.2459
      6 C         139.8211  139.8070  163.2213 C.3     1  UNL1        0.1773
      7 N         140.9005  138.7782  163.0584 N.pl3   1  UNL1       -0.2980
      8 C         140.9755  137.6141  164.0013 C.3     1  UNL1        0.1127
      9 C         139.9710  137.4787  165.1070 C.3     1  UNL1        0.1148
     10 N         138.8916  138.5074  165.2699 N.am    1  UNL1       -0.2764
     11 C         141.9050  138.9137  161.9527 C.ar    1  UNL1        0.0514
     12 C         143.2917  138.3693  162.1283 C.ar    1  UNL1        0.0352
     13 C         144.2962  138.5048  161.0226 C.ar    1  UNL1        0.1002
     14 N         143.9140  139.1846  159.7412 N.ar    1  UNL1       -0.2422
     15 C         142.5274  139.7290  159.5656 C.ar    1  UNL1        0.1002
     16 C         141.5229  139.5935  160.6714 C.ar    1  UNL1        0.0352
     17 C         139.5324  140.3523  169.3810 C.3     1  UNL1        0.0474
     18 C         140.6221  139.8416  170.2763 C.3     1  UNL1        0.2054
     19 O         142.0580  140.1228  169.9456 O.3     1  UNL1       -0.4755
     20 C         142.4468  140.4905  168.5444 C.ar    1  UNL1        0.1386
     21 C         142.6826  139.4157  167.5249 C.ar    1  UNL1        0.0369
     22 C         143.0714  139.7834  166.1237 C.ar    1  UNL1        0.0031
     23 C         143.2244  141.2260  165.7418 C.ar    1  UNL1        0.0002
     24 C         142.9886  142.3007  166.7612 C.ar    1  UNL1        0.0031
     25 C         142.5998  141.9330  168.1626 C.ar    1  UNL1        0.0369
     26 C         143.6132  141.5937  164.3405 C.ar    1  UNL1        0.0001
     27 C         145.0007  141.3075  163.8476 C.ar    1  UNL1        0.0009
     28 C         145.3895  141.6753  162.4462 C.ar    1  UNL1        0.0114
     29 C         144.3908  142.3291  161.5379 C.ar    1  UNL1        0.0577
     30 CL        144.7796  142.6968  160.1367 Cl      1  UNL1       -0.0822
     31 C         143.0033  142.6152  162.0309 C.ar    1  UNL1        0.0114
     32 C         142.6145  142.2475  163.4321 C.ar    1  UNL1        0.0009
@<TRIPOS>BOND
     1     4     5    2
     2     5     6    1
     3     6     7    1
     4     7    11    1
     5    11    12   ar
     6    12    13   ar
     7    13    14   ar
     8    14    15   ar
     9    15    16   ar
    10     7     8    1
    11     8     9    1
    12     9    10    1
    13    10     3    1
    14     3     2    1
    15     2     1    1
    16     1    17    1
    17    17    18    1
    18    18    19    1
    19    19    20    1
    20    20    21   ar
    21    21    22   ar
    22    22    23   ar
    23    23    26    1
    24    26    27   ar
    25    27    28   ar
    26    28    29   ar
    27    29    30    1
    28    29    31   ar
    29    31    32   ar
    30    23    24   ar
    31    24    25   ar
    32    10     5   am
    33    25    20   ar
    34    16    11   ar
    35    32    26   ar
@<TRIPOS>MOLECULE
*****
 32 35 0 0 0
SMALL
GASTEIGER

@<TRIPOS>ATOM
      1 C         142.9015  139.7006  168.4865 C.3     1  UNL1        0.0056
      2 C         142.6851  139.1958  167.0906 C.3     1  UNL1        0.0216
      3 C         143.4996  139.7481  165.9586 C.3     1  UNL1        0.0935
      4 O         143.6599  142.6525  166.6929 O.2     1  UNL1       -0.2730
      5 C         142.9923  142.2376  165.4153 C.2     1  UNL1        0.2459
      6 C         142.4048  143.2749  164.5049 C.3     1  UNL1        0.1773
      7 N         141.7372  142.8601  163.2274 N.pl3   1  UNL1       -0.2980
      8 C         141.6570  141.4079  162.8602 C.3     1  UNL1        0.1127
      9 C         142.2445  140.3707  163.7706 C.3     1  UNL1        0.1148
     10 N         142.9121  140.7855  165.0482 N.am    1  UNL1       -0.2764
     11 C         141.1497  143.8974  162.3170 C.ar    1  UNL1        0.0514
     12 C         141.6114  143.9938  160.8931 C.ar    1  UNL1        0.0352
     13 C         141.0240  145.0311  159.9827 C.ar    1  UNL1        0.1002
     14 N         139.9747  145.9721  160.4961 N.ar    1  UNL1       -0.2422
     15 C         139.5129  145.8758  161.9200 C.ar    1  UNL1        0.1002
     16 C         140.1005  144.8384  162.8305 C.ar    1  UNL1        0.0352
     17 C         142.0236  139.2184  169.6030 C.3     1  UNL1        0.0474
     18 C         141.2333  140.2020  170.4139 C.3     1  UNL1        0.2054
     19 O         139.8798  140.6460  169.9437 O.3     1  UNL1       -0.4755
     20 C         139.5227  140.5517  168.4900 C.ar    1  UNL1        0.1386
     21 C         139.9736  141.6180  167.5362 C.ar    1  UNL1        0.0369
     22 C         139.6165  141.5237  166.0824 C.ar    1  UNL1        0.0031
     23 C         138.8085  140.3631  165.5823 C.ar    1  UNL1        0.0002
     24 C         138.3576  139.2967  166.5360 C.ar    1  UNL1        0.0031
     25 C         138.7147  139.3911  167.9899 C.ar    1  UNL1        0.0369
     26 C         138.4514  140.2688  164.1285 C.ar    1  UNL1        0.0001
     27 C         138.4641  138.9373  163.4379 C.ar    1  UNL1        0.0009
     28 C         138.1070  138.8431  161.9840 C.ar    1  UNL1        0.0114
     29 C         137.7372  140.0803  161.2208 C.ar    1  UNL1        0.0577
     30 CL        137.3801  139.9860  159.7671 Cl      1  UNL1       -0.0822
     31 C         137.7245  141.4118  161.9115 C.ar    1  UNL1        0.0114
     32 C         138.0816  141.5061  163.3652 C.ar    1  UNL1        0.0009
@<TRIPOS>BOND
     1     4     5    2
     2     5     6    1
     3     6     7    1
     4     7    11    1
     5    11    12   ar
     6    12    13   ar
     7    13    14   ar
     8    14    15   ar
     9    15    16   ar
    10     7     8    1
    11     8     9    1
    12     9    10    1
    13    10     3    1
    14     3     2    1
    15     2     1    1
    16     1    17    1
    17    17    18    1
    18    18    19    1
    19    19    20    1
    20    20    21   ar
    21    21    22   ar
    22    22    23   ar
    23    23    26    1
    24    26    27   ar
    25    27    28   ar
    26    28    29   ar
    27    29    30    1
    28    29    31   ar
    29    31    32   ar
    30    23    24   ar
    31    24    25   ar
    32    10     5   am
    33    25    20   ar
    34    16    11   ar
    35    32    26   ar
@<TRIPOS>MOLECULE
*****
 32 35 0 0 0
SMALL
GASTEIGER

@<TRIPOS>ATOM
      1 C         143.7609  140.9786  159.8192 C.3     1  UNL1        0.0056
      2 C         143.5629  139.5051  159.6199 C.3     1  UNL1        0.0216
      3 C         143.7460  138.5612  160.7712 C.3     1  UNL1        0.0935
      4 O         144.5129  139.5144  163.5105 O.2     1  UNL1       -0.2730
      5 C         143.1242  139.0085  163.2539 C.2     1  UNL1        0.2459
      6 C         142.1191  138.9792  164.3668 C.3     1  UNL1        0.1773
      7 N         140.7305  138.4733  164.1102 N.pl3   1  UNL1       -0.2980
      8 C         140.3470  137.9968  162.7406 C.3     1  UNL1        0.1127
      9 C         141.3522  138.0261  161.6277 C.3     1  UNL1        0.1148
     10 N         142.7408  138.5320  161.8843 N.am    1  UNL1       -0.2764
     11 C         139.7253  138.4441  165.2233 C.ar    1  UNL1        0.0514
     12 C         138.7333  137.3221  165.3086 C.ar    1  UNL1        0.0352
     13 C         137.7282  137.2928  166.4216 C.ar    1  UNL1        0.1002
     14 N         137.7150  138.3854  167.4493 N.ar    1  UNL1       -0.2422
     15 C         138.7069  139.5074  167.3639 C.ar    1  UNL1        0.1002
     16 C         139.7121  139.5366  166.2509 C.ar    1  UNL1        0.0352
     17 C         142.6773  141.8025  160.4492 C.3     1  UNL1        0.0474
     18 C         142.8271  143.2920  160.5445 C.3     1  UNL1        0.2054
     19 O         143.4806  143.9046  161.7477 O.3     1  UNL1       -0.4755
     20 C         143.0882  143.4560  163.1242 C.ar    1  UNL1        0.1386
     21 C         141.6613  143.5713  163.5724 C.ar    1  UNL1        0.0369
     22 C         141.2690  143.1228  164.9488 C.ar    1  UNL1        0.0031
     23 C         142.3034  142.5588  165.8773 C.ar    1  UNL1        0.0002
     24 C         143.7303  142.4435  165.4291 C.ar    1  UNL1        0.0031
     25 C         144.1226  142.8921  164.0525 C.ar    1  UNL1        0.0369
     26 C         141.9111  142.1103  167.2538 C.ar    1  UNL1        0.0001
     27 C         140.7432  142.7481  167.9460 C.ar    1  UNL1        0.0009
     28 C         140.3508  142.2995  169.3226 C.ar    1  UNL1        0.0114
     29 C         141.1263  141.2131  170.0068 C.ar    1  UNL1        0.0577
     30 CL        140.7339  140.7645  171.3833 Cl      1  UNL1       -0.0822
     31 C         142.2942  140.5753  169.3146 C.ar    1  UNL1        0.0114
     32 C         142.6866  141.0238  167.9381 C.ar    1  UNL1        0.0009
@<TRIPOS>BOND
     1     4     5    2
     2     5     6    1
     3     6     7    1
     4     7    11    1
     5    11    12   ar
     6    12    13   ar
     7    13    14   ar
     8    14    15   ar
     9    15    16   ar
    10     7     8    1
    11     8     9    1
    12     9    10    1
    13    10     3    1
    14     3     2    1
    15     2     1    1
    16     1    17    1
    17    17    18    1
    18    18    19    1
    19    19    20    1
    20    20    21   ar
    21    21    22   ar
    22    22    23   ar
    23    23    26    1
    24    26    27   ar
    25    27    28   ar
    26    28    29   ar
    27    29    30    1
    28    29    31   ar
    29    31    32   ar
    30    23    24   ar
    31    24    25   ar
    32    10     5   am
    33    25    20   ar
    34    16    11   ar
    35    32    26   ar
@<TRIPOS>MOLECULE
*****
 32 35 0 0 0
SMALL
GASTEIGER

@<TRIPOS>ATOM
      1 C         140.6700  142.7939  169.6294 C.3     1  UNL1        0.0056
      2 C         142.0422  142.8652  170.2313 C.3     1  UNL1        0.0216
      3 C         143.1323  141.9701  169.7212 C.3     1  UNL1        0.0935
      4 O         142.7166  139.0958  168.9689 O.2     1  UNL1       -0.2730
      5 C         142.9459  140.1248  167.9018 C.2     1  UNL1        0.2459
      6 C         142.9674  139.7166  166.4586 C.3     1  UNL1        0.1773
      7 N         143.1967  140.7455  165.3915 N.pl3   1  UNL1       -0.2980
      8 C         143.4045  142.1826  165.7676 C.3     1  UNL1        0.1127
      9 C         143.3831  142.5908  167.2108 C.3     1  UNL1        0.1148
     10 N         143.1538  141.5619  168.2779 N.am    1  UNL1       -0.2764
     11 C         143.2182  140.3373  163.9482 C.ar    1  UNL1        0.0514
     12 C         143.8883  139.0588  163.5403 C.ar    1  UNL1        0.0352
     13 C         143.9098  138.6506  162.0971 C.ar    1  UNL1        0.1002
     14 N         143.2611  139.5208  161.0617 N.ar    1  UNL1       -0.2422
     15 C         142.5909  140.7993  161.4696 C.ar    1  UNL1        0.1002
     16 C         142.5695  141.2075  162.9129 C.ar    1  UNL1        0.0352
     17 C         139.6393  141.8773  170.2187 C.3     1  UNL1        0.0474
     18 C         139.6995  140.4043  169.9418 C.3     1  UNL1        0.2054
     19 O         138.5954  139.7398  169.1739 O.3     1  UNL1       -0.4755
     20 C         138.7049  139.5843  167.6860 C.ar    1  UNL1        0.1386
     21 C         139.4482  140.6062  166.8777 C.ar    1  UNL1        0.0369
     22 C         139.5576  140.4507  165.3899 C.ar    1  UNL1        0.0031
     23 C         138.9238  139.2732  164.7102 C.ar    1  UNL1        0.0002
     24 C         138.1806  138.2513  165.5184 C.ar    1  UNL1        0.0031
     25 C         138.0711  138.4068  167.0064 C.ar    1  UNL1        0.0369
     26 C         139.0333  139.1177  163.2223 C.ar    1  UNL1        0.0001
     27 C         138.0702  139.8315  162.3207 C.ar    1  UNL1        0.0009
     28 C         138.1798  139.6760  160.8328 C.ar    1  UNL1        0.0114
     29 C         139.2523  138.8066  160.2465 C.ar    1  UNL1        0.0577
     30 CL        139.3618  138.6511  158.7587 Cl      1  UNL1       -0.0822
     31 C         140.2154  138.0927  161.1481 C.ar    1  UNL1        0.0114
     32 C         140.1059  138.2482  162.6360 C.ar    1  UNL1        0.0009
@<TRIPOS>BOND
     1     4     5    2
     2     5     6    1
     3     6     7    1
     4     7    11    1
     5    11    12   ar
     6    12    13   ar
     7    13    14   ar
     8    14    15   ar
     9    15    16   ar
    10     7     8    1
    11     8     9    1
    12     9    10    1
    13    10     3    1
    14     3     2    1
    15     2     1    1
    16     1    17    1
    17    17    18    1
    18    18    19    1
    19    19    20    1
    20    20    21   ar
    21    21    22   ar
    22    22    23   ar
    23    23    26    1
    24    26    27   ar
    25    27    28   ar
    26    28    29   ar
    27    29    30    1
    28    29    31   ar
    29    31    32   ar
    30    23    24   ar
    31    24    25   ar
    32    10     5   am
    33    25    20   ar
    34    16    11   ar
    35    32    26   ar
@<TRIPOS>MOLECULE
*****
 32 35 0 0 0
SMALL
GASTEIGER

@<TRIPOS>ATOM
      1 C         142.1320  144.1146  158.9329 C.3     1  UNL1        0.0056
      2 C         142.8806  142.8279  158.7482 C.3     1  UNL1        0.0216
      3 C         144.1024  142.5462  159.5715 C.3     1  UNL1        0.0935
      4 O         143.8945  144.3055  161.9926 O.2     1  UNL1       -0.2730
      5 C         143.8601  142.8136  162.1444 C.2     1  UNL1        0.2459
      6 C         143.7217  142.2013  163.5067 C.3     1  UNL1        0.1773
      7 N         143.6873  140.7094  163.6585 N.pl3   1  UNL1       -0.2980
      8 C         143.7912  139.8298  162.4480 C.3     1  UNL1        0.1127
      9 C         143.9296  140.4420  161.0857 C.3     1  UNL1        0.1148
     10 N         143.9640  141.9339  160.9339 N.am    1  UNL1       -0.2764
     11 C         143.5489  140.0971  165.0209 C.ar    1  UNL1        0.0514
     12 C         143.1077  140.9400  166.1806 C.ar    1  UNL1        0.0352
     13 C         142.9693  140.3278  167.5430 C.ar    1  UNL1        0.1002
     14 N         143.2722  138.8727  167.7457 N.ar    1  UNL1       -0.2422
     15 C         143.7134  138.0299  166.5860 C.ar    1  UNL1        0.1002
     16 C         143.8518  138.6421  165.2236 C.ar    1  UNL1        0.0352
     17 C         140.9666  144.1756  159.8751 C.3     1  UNL1        0.0474
     18 C         140.3819  145.5023  160.2598 C.3     1  UNL1        0.2054
     19 O         139.2927  145.5719  161.2889 O.3     1  UNL1       -0.4755
     20 C         139.4012  144.7692  162.5513 C.ar    1  UNL1        0.1386
     21 C         140.6405  144.8573  163.3919 C.ar    1  UNL1        0.0369
     22 C         140.7491  144.0546  164.6543 C.ar    1  UNL1        0.0031
     23 C         139.6184  143.1638  165.0763 C.ar    1  UNL1        0.0002
     24 C         138.3791  143.0757  164.2358 C.ar    1  UNL1        0.0031
     25 C         138.2706  143.8784  162.9732 C.ar    1  UNL1        0.0369
     26 C         139.7270  142.3611  166.3388 C.ar    1  UNL1        0.0001
     27 C         140.1861  143.0168  167.6073 C.ar    1  UNL1        0.0009
     28 C         140.2947  142.2141  168.8698 C.ar    1  UNL1        0.0114
     29 C         139.9441  140.7556  168.8638 C.ar    1  UNL1        0.0577
     30 CL        140.0527  139.9530  170.1262 Cl      1  UNL1       -0.0822
     31 C         139.4849  140.0999  167.5952 C.ar    1  UNL1        0.0114
     32 C         139.3764  140.9026  166.3328 C.ar    1  UNL1        0.0009
@<TRIPOS>BOND
     1     4     5    2
     2     5     6    1
     3     6     7    1
     4     7    11    1
     5    11    12   ar
     6    12    13   ar
     7    13    14   ar
     8    14    15   ar
     9    15    16   ar
    10     7     8    1
    11     8     9    1
    12     9    10    1
    13    10     3    1
    14     3     2    1
    15     2     1    1
    16     1    17    1
    17    17    18    1
    18    18    19    1
    19    19    20    1
    20    20    21   ar
    21    21    22   ar
    22    22    23   ar
    23    23    26    1
    24    26    27   ar
    25    27    28   ar
    26    28    29   ar
    27    29    30    1
    28    29    31   ar
    29    31    32   ar
    30    23    24   ar
    31    24    25   ar
    32    10     5   am
    33    25    20   ar
    34    16    11   ar
    35    32    26   ar
@<TRIPOS>MOLECULE
*****
 32 35 0 0 0
SMALL
GASTEIGER

@<TRIPOS>ATOM
      1 C         140.4813  144.1226  158.4480 C.3     1  UNL1        0.0056
      2 C         139.2186  143.6109  157.8203 C.3     1  UNL1        0.0216
      3 C         138.4684  142.4799  158.4589 C.3     1  UNL1        0.0935
      4 O         137.9063  143.2647  161.2994 O.2     1  UNL1       -0.2730
      5 C         138.8084  142.1025  161.0069 C.2     1  UNL1        0.2459
      6 C         139.4294  141.3327  162.1346 C.3     1  UNL1        0.1773
      7 N         140.3315  140.1705  161.8421 N.pl3   1  UNL1       -0.2980
      8 C         140.6125  139.7781  160.4219 C.3     1  UNL1        0.1127
      9 C         139.9915  140.5479  159.2942 C.3     1  UNL1        0.1148
     10 N         139.0895  141.7101  159.5867 N.am    1  UNL1       -0.2764
     11 C         140.9525  139.4007  162.9698 C.ar    1  UNL1        0.0514
     12 C         140.4523  138.0269  163.3050 C.ar    1  UNL1        0.0352
     13 C         141.0733  137.2571  164.4328 C.ar    1  UNL1        0.1002
     14 N         142.1945  137.8611  165.2253 N.ar    1  UNL1       -0.2422
     15 C         142.6947  139.2350  164.8902 C.ar    1  UNL1        0.1002
     16 C         142.0736  140.0048  163.7624 C.ar    1  UNL1        0.0352
     17 C         140.4277  145.2696  159.4132 C.3     1  UNL1        0.0474
     18 C         141.0855  145.1511  160.7560 C.3     1  UNL1        0.2054
     19 O         140.3991  145.6870  161.9773 O.3     1  UNL1       -0.4755
     20 C         140.3628  144.8716  163.2358 C.ar    1  UNL1        0.1386
     21 C         139.1242  144.8525  164.0817 C.ar    1  UNL1        0.0369
     22 C         139.0880  144.0372  165.3402 C.ar    1  UNL1        0.0031
     23 C         140.2903  143.2408  165.7528 C.ar    1  UNL1        0.0002
     24 C         141.5289  143.2598  164.9069 C.ar    1  UNL1        0.0031
     25 C         141.5651  144.0753  163.6484 C.ar    1  UNL1        0.0369
     26 C         140.2541  142.4254  167.0113 C.ar    1  UNL1        0.0001
     27 C         140.3777  143.0995  168.3456 C.ar    1  UNL1        0.0009
     28 C         140.3415  142.2840  169.6041 C.ar    1  UNL1        0.0114
     29 C         140.1816  140.7945  169.5283 C.ar    1  UNL1        0.0577
     30 CL        140.1453  139.9791  170.7867 Cl      1  UNL1       -0.0822
     31 C         140.0579  140.1204  168.1940 C.ar    1  UNL1        0.0114
     32 C         140.0942  140.9358  166.9355 C.ar    1  UNL1        0.0009
@<TRIPOS>BOND
     1     4     5    2
     2     5     6    1
     3     6     7    1
     4     7    11    1
     5    11    12   ar
     6    12    13   ar
     7    13    14   ar
     8    14    15   ar
     9    15    16   ar
    10     7     8    1
    11     8     9    1
    12     9    10    1
    13    10     3    1
    14     3     2    1
    15     2     1    1
    16     1    17    1
    17    17    18    1
    18    18    19    1
    19    19    20    1
    20    20    21   ar
    21    21    22   ar
    22    22    23   ar
    23    23    26    1
    24    26    27   ar
    25    27    28   ar
    26    28    29   ar
    27    29    30    1
    28    29    31   ar
    29    31    32   ar
    30    23    24   ar
    31    24    25   ar
    32    10     5   am
    33    25    20   ar
    34    16    11   ar
    35    32    26   ar
@<TRIPOS>MOLECULE
*****
 32 35 0 0 0
SMALL
GASTEIGER

@<TRIPOS>ATOM
      1 C         142.8865  143.1158  159.2312 C.3     1  UNL1        0.0056
      2 C         142.1707  143.2621  160.5413 C.3     1  UNL1        0.0216
      3 C         142.8330  143.9763  161.6821 C.3     1  UNL1        0.0935
      4 O         140.5174  144.3762  163.5471 O.2     1  UNL1       -0.2730
      5 C         141.6950  143.5536  163.9791 C.2     1  UNL1        0.2459
      6 C         141.7148  142.9309  165.3436 C.3     1  UNL1        0.1773
      7 N         142.8924  142.1083  165.7756 N.pl3   1  UNL1       -0.2980
      8 C         144.0501  141.9083  164.8431 C.3     1  UNL1        0.1127
      9 C         144.0303  142.5310  163.4786 C.3     1  UNL1        0.1148
     10 N         142.8527  143.3536  163.0466 N.am    1  UNL1       -0.2764
     11 C         142.9122  141.4857  167.1402 C.ar    1  UNL1        0.0514
     12 C         143.2893  142.3100  168.3353 C.ar    1  UNL1        0.0352
     13 C         143.3091  141.6874  169.6998 C.ar    1  UNL1        0.1002
     14 N         142.9517  140.2404  169.8693 N.ar    1  UNL1       -0.2422
     15 C         142.5746  139.4161  168.6742 C.ar    1  UNL1        0.1002
     16 C         142.5548  140.0388  167.3096 C.ar    1  UNL1        0.0352
     17 C         144.1085  142.2512  159.1366 C.3     1  UNL1        0.0474
     18 C         144.0586  140.9635  158.3689 C.3     1  UNL1        0.2054
     19 O         143.9979  139.6557  159.1010 O.3     1  UNL1       -0.4755
     20 C         143.0579  139.4865  160.2576 C.ar    1  UNL1        0.1386
     21 C         143.6002  139.2956  161.6431 C.ar    1  UNL1        0.0369
     22 C         142.6602  139.1265  162.7997 C.ar    1  UNL1        0.0031
     23 C         141.1779  139.1482  162.5708 C.ar    1  UNL1        0.0002
     24 C         140.6356  139.3391  161.1854 C.ar    1  UNL1        0.0031
     25 C         141.5757  139.5083  160.0287 C.ar    1  UNL1        0.0369
     26 C         140.2379  138.9791  163.7275 C.ar    1  UNL1        0.0001
     27 C         139.8316  137.6043  164.1689 C.ar    1  UNL1        0.0009
     28 C         138.8916  137.4352  165.3255 C.ar    1  UNL1        0.0114
     29 C         138.3579  138.6408  166.0407 C.ar    1  UNL1        0.0577
     30 CL        137.4179  138.4717  167.1973 Cl      1  UNL1       -0.0822
     31 C         138.7642  140.0156  165.5993 C.ar    1  UNL1        0.0114
     32 C         139.7042  140.1848  164.4427 C.ar    1  UNL1        0.0009
@<TRIPOS>BOND
     1     4     5    2
     2     5     6    1
     3     6     7    1
     4     7    11    1
     5    11    12   ar
     6    12    13   ar
     7    13    14   ar
     8    14    15   ar
     9    15    16   ar
    10     7     8    1
    11     8     9    1
    12     9    10    1
    13    10     3    1
    14     3     2    1
    15     2     1    1
    16     1    17    1
    17    17    18    1
    18    18    19    1
    19    19    20    1
    20    20    21   ar
    21    21    22   ar
    22    22    23   ar
    23    23    26    1
    24    26    27   ar
    25    27    28   ar
    26    28    29   ar
    27    29    30    1
    28    29    31   ar
    29    31    32   ar
    30    23    24   ar
    31    24    25   ar
    32    10     5   am
    33    25    20   ar
    34    16    11   ar
    35    32    26   ar
@<TRIPOS>MOLECULE
*****
 32 35 0 0 0
SMALL
GASTEIGER

@<TRIPOS>ATOM
      1 C         144.7362  142.5478  160.8785 C.3     1  UNL1        0.0056
      2 C         144.7823  141.3261  161.7478 C.3     1  UNL1        0.0216
      3 C         145.3672  141.4083  163.1265 C.3     1  UNL1        0.0935
      4 O         144.3577  143.6746  164.8132 O.2     1  UNL1       -0.2730
      5 C         144.0034  142.2606  165.1670 C.2     1  UNL1        0.2459
      6 C         143.1443  141.9798  166.3641 C.3     1  UNL1        0.1773
      7 N         142.7900  140.5659  166.7179 N.pl3   1  UNL1       -0.2980
      8 C         143.2947  139.4327  165.8746 C.3     1  UNL1        0.1127
      9 C         144.1538  139.7135  164.6775 C.3     1  UNL1        0.1148
     10 N         144.5081  141.1275  164.3237 N.am    1  UNL1       -0.2764
     11 C         141.9309  140.2851  167.9151 C.ar    1  UNL1        0.0514
     12 C         140.4891  140.6988  167.9172 C.ar    1  UNL1        0.0352
     13 C         139.6299  140.4181  169.1142 C.ar    1  UNL1        0.1002
     14 N         140.2126  139.7235  170.3093 N.ar    1  UNL1       -0.2422
     15 C         141.6544  139.3098  170.3073 C.ar    1  UNL1        0.1002
     16 C         142.5136  139.5906  169.1101 C.ar    1  UNL1        0.0352
     17 C         143.7258  142.6447  159.7742 C.3     1  UNL1        0.0474
     18 C         143.7121  141.6207  158.6782 C.3     1  UNL1        0.2054
     19 O         142.6209  140.5928  158.6257 O.3     1  UNL1       -0.4755
     20 C         141.8621  140.2403  159.8707 C.ar    1  UNL1        0.1386
     21 C         140.7138  141.0960  160.3168 C.ar    1  UNL1        0.0369
     22 C         139.9550  140.7435  161.5617 C.ar    1  UNL1        0.0031
     23 C         140.3446  139.5352  162.3607 C.ar    1  UNL1        0.0002
     24 C         141.4929  138.6794  161.9146 C.ar    1  UNL1        0.0031
     25 C         142.2517  139.0320  160.6696 C.ar    1  UNL1        0.0369
     26 C         139.5858  139.1827  163.6056 C.ar    1  UNL1        0.0001
     27 C         138.8061  140.2378  164.3328 C.ar    1  UNL1        0.0009
     28 C         138.0473  139.8852  165.5779 C.ar    1  UNL1        0.0114
     29 C         138.0683  138.4776  166.0956 C.ar    1  UNL1        0.0577
     30 CL        137.3095  138.1251  167.3406 Cl      1  UNL1       -0.0822
     31 C         138.8480  137.4225  165.3684 C.ar    1  UNL1        0.0114
     32 C         139.6067  137.7750  164.1235 C.ar    1  UNL1        0.0009
@<TRIPOS>BOND
     1     4     5    2
     2     5     6    1
     3     6     7    1
     4     7    11    1
     5    11    12   ar
     6    12    13   ar
     7    13    14   ar
     8    14    15   ar
     9    15    16   ar
    10     7     8    1
    11     8     9    1
    12     9    10    1
    13    10     3    1
    14     3     2    1
    15     2     1    1
    16     1    17    1
    17    17    18    1
    18    18    19    1
    19    19    20    1
    20    20    21   ar
    21    21    22   ar
    22    22    23   ar
    23    23    26    1
    24    26    27   ar
    25    27    28   ar
    26    28    29   ar
    27    29    30    1
    28    29    31   ar
    29    31    32   ar
    30    23    24   ar
    31    24    25   ar
    32    10     5   am
    33    25    20   ar
    34    16    11   ar
    35    32    26   ar
@<TRIPOS>MOLECULE
*****
 32 35 0 0 0
SMALL
GASTEIGER

@<TRIPOS>ATOM
      1 C         142.2697  143.6195  159.8847 C.3     1  UNL1        0.0056
      2 C         141.4364  143.8996  161.1002 C.3     1  UNL1        0.0216
      3 C         142.0480  144.5818  162.2878 C.3     1  UNL1        0.0935
      4 O         144.6703  143.2736  162.9298 O.2     1  UNL1       -0.2730
      5 C         143.5286  143.1802  163.8982 C.2     1  UNL1        0.2459
      6 C         143.6980  142.4327  165.1876 C.3     1  UNL1        0.1773
      7 N         142.5563  142.3392  166.1559 N.pl3   1  UNL1       -0.2980
      8 C         141.2452  142.9933  165.8350 C.3     1  UNL1        0.1127
      9 C         141.0758  143.7409  164.5456 C.3     1  UNL1        0.1148
     10 N         142.2175  143.8343  163.5772 N.am    1  UNL1       -0.2764
     11 C         142.7258  141.5917  167.4454 C.ar    1  UNL1        0.0514
     12 C         143.1124  142.3278  168.6938 C.ar    1  UNL1        0.0352
     13 C         143.2819  141.5803  169.9832 C.ar    1  UNL1        0.1002
     14 N         143.0647  140.0966  170.0241 N.ar    1  UNL1       -0.2422
     15 C         142.6781  139.3605  168.7757 C.ar    1  UNL1        0.1002
     16 C         142.5086  140.1081  167.4863 C.ar    1  UNL1        0.0352
     17 C         143.5777  142.8984  160.0220 C.3     1  UNL1        0.0474
     18 C         143.7166  141.4937  159.5144 C.3     1  UNL1        0.2054
     19 O         143.9811  140.3720  160.4746 O.3     1  UNL1       -0.4755
     20 C         142.9572  140.0145  161.5108 C.ar    1  UNL1        0.1386
     21 C         141.4980  140.2053  161.2204 C.ar    1  UNL1        0.0369
     22 C         140.4741  139.8478  162.2566 C.ar    1  UNL1        0.0031
     23 C         140.9094  139.2995  163.5833 C.ar    1  UNL1        0.0002
     24 C         142.3686  139.1088  163.8737 C.ar    1  UNL1        0.0031
     25 C         143.3925  139.4663  162.8374 C.ar    1  UNL1        0.0369
     26 C         139.8855  138.9421  164.6195 C.ar    1  UNL1        0.0001
     27 C         139.2970  140.0107  165.4924 C.ar    1  UNL1        0.0009
     28 C         138.2731  139.6531  166.5287 C.ar    1  UNL1        0.0114
     29 C         137.8377  138.2271  166.6920 C.ar    1  UNL1        0.0577
     30 CL        136.8138  137.8696  167.7283 Cl      1  UNL1       -0.0822
     31 C         138.4261  137.1585  165.8192 C.ar    1  UNL1        0.0114
     32 C         139.4500  137.5160  164.7830 C.ar    1  UNL1        0.0009
@<TRIPOS>BOND
     1     4     5    2
     2     5     6    1
     3     6     7    1
     4     7    11    1
     5    11    12   ar
     6    12    13   ar
     7    13    14   ar
     8    14    15   ar
     9    15    16   ar
    10     7     8    1
    11     8     9    1
    12     9    10    1
    13    10     3    1
    14     3     2    1
    15     2     1    1
    16     1    17    1
    17    17    18    1
    18    18    19    1
    19    19    20    1
    20    20    21   ar
    21    21    22   ar
    22    22    23   ar
    23    23    26    1
    24    26    27   ar
    25    27    28   ar
    26    28    29   ar
    27    29    30    1
    28    29    31   ar
    29    31    32   ar
    30    23    24   ar
    31    24    25   ar
    32    10     5   am
    33    25    20   ar
    34    16    11   ar
    35    32    26   ar
