@<TRIPOS>MOLECULE
*****
 24 27 0 0 0
SMALL
GASTEIGER

@<TRIPOS>ATOM
      1 C         139.7692  140.0592  167.8324 C.ar    1  UNL1       -0.0018
      2 C         138.4202  139.4430  167.6070 C.ar    1  UNL1        0.0029
      3 C         138.1300  138.7217  166.3243 C.ar    1  UNL1        0.0369
      4 C         139.1886  138.6166  165.2668 C.ar    1  UNL1        0.1384
      5 C         140.5376  139.2327  165.4921 C.ar    1  UNL1        0.0369
      6 C         140.8278  139.9540  166.7750 C.ar    1  UNL1        0.0029
      7 O         140.6471  144.4870  170.4060 O.2     1  UNL1       -0.2711
      8 C         140.4983  142.9944  170.4019 C.2     1  UNL1        0.2671
      9 C         140.2081  142.2731  169.1192 C.3     1  UNL1        0.1166
     10 C         140.0594  140.7805  169.1152 C.2     1  UNL1        0.0078
     11 C         140.2009  140.0092  170.3938 C.2     1  UNL1        0.1159
     12 N         140.4911  140.7305  171.6766 N.2     1  UNL1       -0.1549
     13 N         140.6398  142.2231  171.6806 N.am    1  UNL1       -0.0789
     14 O         138.8984  137.8953  163.9841 O.3     1  UNL1       -0.4791
     15 C         138.7115  138.6703  162.7135 C.3     1  UNL1        0.1687
     16 C         139.2995  138.1611  161.4310 C.3     1  UNL1        0.0609
     17 C         139.1126  138.9362  160.1604 C.3     1  UNL1        0.0758
     18 N         138.3377  140.2204  160.1724 N.3     1  UNL1       -0.2737
     19 C         137.7497  140.7296  161.4549 C.3     1  UNL1        0.0758
     20 C         137.9366  139.9546  162.7255 C.3     1  UNL1        0.0609
     21 C         138.1509  140.9955  158.9018 C.3     1  UNL1        0.0575
     22 C         137.5948  140.6870  157.5432 C.3     1  UNL1        0.0160
     23 C         137.8866  142.0916  157.1049 C.3     1  UNL1        0.0028
     24 C         138.4426  142.4001  158.4635 C.3     1  UNL1        0.0160
@<TRIPOS>BOND
     1     7     8    2
     2     8     9    1
     3     9    10    1
     4    10     1    1
     5     1     2   ar
     6     2     3   ar
     7     3     4   ar
     8     4    14    1
     9    14    15    1
    10    15    16    1
    11    16    17    1
    12    17    18    1
    13    18    21    1
    14    21    22    1
    15    22    23    1
    16    23    24    1
    17    18    19    1
    18    19    20    1
    19     4     5   ar
    20     5     6   ar
    21    10    11    2
    22    11    12    1
    23    12    13    2
    24    13     8    1
    25     6     1   ar
    26    20    15    1
    27    24    21    1
@<TRIPOS>MOLECULE
*****
 24 27 0 0 0
SMALL
GASTEIGER

@<TRIPOS>ATOM
      1 C         139.5971  139.9435  167.9439 C.ar    1  UNL1       -0.0018
      2 C         140.6162  139.8916  166.8444 C.ar    1  UNL1        0.0029
      3 C         140.3407  139.0956  165.6034 C.ar    1  UNL1        0.0369
      4 C         139.0460  138.3513  165.4617 C.ar    1  UNL1        0.1384
      5 C         138.0270  138.4031  166.5611 C.ar    1  UNL1        0.0369
      6 C         138.3025  139.1993  167.8023 C.ar    1  UNL1        0.0029
      7 O         140.1477  144.5337  170.3159 O.2     1  UNL1       -0.2711
      8 C         140.1480  143.0348  170.3710 C.2     1  UNL1        0.2671
      9 C         139.8724  142.2386  169.1299 C.3     1  UNL1        0.1166
     10 C         139.8727  140.7396  169.1850 C.2     1  UNL1        0.0078
     11 C         140.1485  140.0368  170.4811 C.2     1  UNL1        0.1159
     12 N         140.4241  140.8329  171.7221 N.2     1  UNL1       -0.1549
     13 N         140.4238  142.3319  171.6670 N.am    1  UNL1       -0.0789
     14 O         138.7705  137.5552  164.2206 O.3     1  UNL1       -0.4791
     15 C         139.5446  137.8306  162.9656 C.3     1  UNL1        0.1687
     16 C         138.8770  138.5092  161.8064 C.3     1  UNL1        0.0609
     17 C         139.6510  138.7846  160.5514 C.3     1  UNL1        0.0758
     18 N         141.0926  138.3815  160.4556 N.3     1  UNL1       -0.2737
     19 C         141.7602  137.7030  161.6149 C.3     1  UNL1        0.0758
     20 C         140.9862  137.4275  162.8699 C.3     1  UNL1        0.0609
     21 C         141.8667  138.6570  159.2007 C.3     1  UNL1        0.0575
     22 C         142.9812  139.5879  158.8246 C.3     1  UNL1        0.0160
     23 C         142.9613  139.0465  157.4259 C.3     1  UNL1        0.0028
     24 C         141.8469  138.1156  157.8018 C.3     1  UNL1        0.0160
@<TRIPOS>BOND
     1     7     8    2
     2     8     9    1
     3     9    10    1
     4    10     1    1
     5     1     2   ar
     6     2     3   ar
     7     3     4   ar
     8     4    14    1
     9    14    15    1
    10    15    16    1
    11    16    17    1
    12    17    18    1
    13    18    21    1
    14    21    22    1
    15    22    23    1
    16    23    24    1
    17    18    19    1
    18    19    20    1
    19     4     5   ar
    20     5     6   ar
    21    10    11    2
    22    11    12    1
    23    12    13    2
    24    13     8    1
    25     6     1   ar
    26    20    15    1
    27    24    21    1
@<TRIPOS>MOLECULE
*****
 24 27 0 0 0
SMALL
GASTEIGER

@<TRIPOS>ATOM
      1 C         142.2789  140.7929  167.8798 C.ar    1  UNL1       -0.0018
      2 C         142.6374  141.6876  166.7305 C.ar    1  UNL1        0.0029
      3 C         143.3198  141.1189  165.5218 C.ar    1  UNL1        0.0369
      4 C         143.6436  139.6554  165.4624 C.ar    1  UNL1        0.1384
      5 C         143.2851  138.7607  166.6118 C.ar    1  UNL1        0.0369
      6 C         142.6027  139.3295  167.8205 C.ar    1  UNL1        0.0029
      7 O         139.9751  144.7797  170.2878 O.2     1  UNL1       -0.2711
      8 C         140.4446  143.3551  170.2925 C.2     1  UNL1        0.2671
      9 C         141.1270  142.7863  169.0839 C.3     1  UNL1        0.1166
     10 C         141.5965  141.3617  169.0885 C.2     1  UNL1        0.0078
     11 C         141.3837  140.5058  170.3019 C.2     1  UNL1        0.1159
     12 N         140.7013  141.0746  171.5105 N.2     1  UNL1       -0.1549
     13 N         140.2318  142.4992  171.5058 N.am    1  UNL1       -0.0789
     14 O         144.3260  139.0867  164.2537 O.3     1  UNL1       -0.4791
     15 C         143.5618  138.9088  162.9753 C.3     1  UNL1        0.1687
     16 C         144.1116  139.4542  161.6908 C.3     1  UNL1        0.0609
     17 C         143.3475  139.2762  160.4123 C.3     1  UNL1        0.0758
     18 N         142.0335  138.5529  160.4184 N.3     1  UNL1       -0.2737
     19 C         141.4836  138.0075  161.7030 C.3     1  UNL1        0.0758
     20 C         142.2478  138.1854  162.9814 C.3     1  UNL1        0.0609
     21 C         141.2693  138.3749  159.1400 C.3     1  UNL1        0.0575
     22 C         139.8303  138.5059  158.7374 C.3     1  UNL1        0.0160
     23 C         140.1887  138.1233  157.3320 C.3     1  UNL1        0.0028
     24 C         141.6277  137.9923  157.7345 C.3     1  UNL1        0.0160
@<TRIPOS>BOND
     1     7     8    2
     2     8     9    1
     3     9    10    1
     4    10     1    1
     5     1     2   ar
     6     2     3   ar
     7     3     4   ar
     8     4    14    1
     9    14    15    1
    10    15    16    1
    11    16    17    1
    12    17    18    1
    13    18    21    1
    14    21    22    1
    15    22    23    1
    16    23    24    1
    17    18    19    1
    18    19    20    1
    19     4     5   ar
    20     5     6   ar
    21    10    11    2
    22    11    12    1
    23    12    13    2
    24    13     8    1
    25     6     1   ar
    26    20    15    1
    27    24    21    1
@<TRIPOS>MOLECULE
*****
 24 27 0 0 0
SMALL
GASTEIGER

@<TRIPOS>ATOM
      1 C         141.2474  140.1686  167.9396 C.ar    1  UNL1       -0.0018
      2 C         140.1774  139.8826  166.9280 C.ar    1  UNL1        0.0029
      3 C         140.5178  139.1534  165.6621 C.ar    1  UNL1        0.0369
      4 C         141.9281  138.7102  165.4079 C.ar    1  UNL1        0.1384
      5 C         142.9981  138.9962  166.4195 C.ar    1  UNL1        0.0369
      6 C         142.6577  139.7254  167.6854 C.ar    1  UNL1        0.0029
      7 O         139.9231  144.5561  170.3884 O.2     1  UNL1       -0.2711
      8 C         140.2449  143.0916  170.4299 C.2     1  UNL1        0.2671
      9 C         140.5853  142.3623  169.1641 C.3     1  UNL1        0.1166
     10 C         140.9070  140.8978  169.2055 C.2     1  UNL1        0.0078
     11 C         140.8883  140.1625  170.5128 C.2     1  UNL1        0.1159
     12 N         140.5479  140.8918  171.7786 N.2     1  UNL1       -0.1549
     13 N         140.2262  142.3563  171.7371 N.am    1  UNL1       -0.0789
     14 O         142.2685  137.9810  164.1420 O.3     1  UNL1       -0.4791
     15 C         142.7062  138.7477  162.9293 C.3     1  UNL1        0.1687
     16 C         142.5879  140.2428  162.9042 C.3     1  UNL1        0.0609
     17 C         143.0256  141.0095  161.6915 C.3     1  UNL1        0.0758
     18 N         143.5815  140.2811  160.5039 N.3     1  UNL1       -0.2737
     19 C         143.6998  138.7860  160.5291 C.3     1  UNL1        0.0758
     20 C         143.2621  138.0193  161.7418 C.3     1  UNL1        0.0609
     21 C         144.0192  141.0478  159.2912 C.3     1  UNL1        0.0575
     22 C         144.3128  140.6961  157.8628 C.3     1  UNL1        0.0160
     23 C         144.6382  142.1320  157.5763 C.3     1  UNL1        0.0028
     24 C         144.3447  142.4838  159.0046 C.3     1  UNL1        0.0160
@<TRIPOS>BOND
     1     7     8    2
     2     8     9    1
     3     9    10    1
     4    10     1    1
     5     1     2   ar
     6     2     3   ar
     7     3     4   ar
     8     4    14    1
     9    14    15    1
    10    15    16    1
    11    16    17    1
    12    17    18    1
    13    18    21    1
    14    21    22    1
    15    22    23    1
    16    23    24    1
    17    18    19    1
    18    19    20    1
    19     4     5   ar
    20     5     6   ar
    21    10    11    2
    22    11    12    1
    23    12    13    2
    24    13     8    1
    25     6     1   ar
    26    20    15    1
    27    24    21    1
@<TRIPOS>MOLECULE
*****
 24 27 0 0 0
SMALL
GASTEIGER

@<TRIPOS>ATOM
      1 C         141.5532  140.5933  167.4930 C.ar    1  UNL1       -0.0018
      2 C         140.1438  140.2842  167.0829 C.ar    1  UNL1        0.0029
      3 C         139.8749  139.2028  166.0788 C.ar    1  UNL1        0.0369
      4 C         141.0154  138.4305  165.4846 C.ar    1  UNL1        0.1384
      5 C         142.4248  138.7396  165.8947 C.ar    1  UNL1        0.0369
      6 C         142.6937  139.8210  166.8989 C.ar    1  UNL1        0.0029
      7 O         139.8856  144.6116  170.3342 O.2     1  UNL1       -0.2711
      8 C         140.9883  143.6838  169.9177 C.2     1  UNL1        0.2671
      9 C         140.7194  142.6024  168.9136 C.3     1  UNL1        0.1166
     10 C         141.8221  141.6747  168.4971 C.2     1  UNL1        0.0078
     11 C         143.1936  141.8283  169.0848 C.2     1  UNL1        0.1159
     12 N         143.4624  142.9097  170.0889 N.2     1  UNL1       -0.1549
     13 N         142.3597  143.8374  170.5054 N.am    1  UNL1       -0.0789
     14 O         140.7465  137.3492  164.4805 O.3     1  UNL1       -0.4791
     15 C         140.4931  137.7044  163.0454 C.3     1  UNL1        0.1687
     16 C         141.6468  137.9389  162.1159 C.3     1  UNL1        0.0609
     17 C         141.3934  138.2942  160.6807 C.3     1  UNL1        0.0758
     18 N         139.9864  138.4150  160.1751 N.3     1  UNL1       -0.2737
     19 C         138.8328  138.1806  161.1047 C.3     1  UNL1        0.0758
     20 C         139.0861  137.8253  162.5398 C.3     1  UNL1        0.0609
     21 C         139.7331  138.7703  158.7400 C.3     1  UNL1        0.0575
     22 C         139.8350  138.0414  157.4329 C.3     1  UNL1        0.0160
     23 C         139.3748  139.2727  156.7104 C.3     1  UNL1        0.0028
     24 C         139.2728  140.0016  158.0174 C.3     1  UNL1        0.0160
@<TRIPOS>BOND
     1     7     8    2
     2     8     9    1
     3     9    10    1
     4    10     1    1
     5     1     2   ar
     6     2     3   ar
     7     3     4   ar
     8     4    14    1
     9    14    15    1
    10    15    16    1
    11    16    17    1
    12    17    18    1
    13    18    21    1
    14    21    22    1
    15    22    23    1
    16    23    24    1
    17    18    19    1
    18    19    20    1
    19     4     5   ar
    20     5     6   ar
    21    10    11    2
    22    11    12    1
    23    12    13    2
    24    13     8    1
    25     6     1   ar
    26    20    15    1
    27    24    21    1
@<TRIPOS>MOLECULE
*****
 24 27 0 0 0
SMALL
GASTEIGER

@<TRIPOS>ATOM
      1 C         142.2044  140.4110  167.0902 C.ar    1  UNL1       -0.0018
      2 C         142.8043  139.0842  166.7301 C.ar    1  UNL1        0.0029
      3 C         143.6704  138.9585  165.5119 C.ar    1  UNL1        0.0369
      4 C         143.9366  140.1596  164.6537 C.ar    1  UNL1        0.1384
      5 C         143.3367  141.4864  165.0138 C.ar    1  UNL1        0.0369
      6 C         142.4706  141.6121  166.2321 C.ar    1  UNL1        0.0029
      7 O         141.4958  142.0995  171.9530 O.2     1  UNL1       -0.2711
      8 C         140.9840  141.3810  170.7399 C.2     1  UNL1        0.2671
      9 C         141.8501  141.2553  169.5216 C.3     1  UNL1        0.1166
     10 C         141.3383  140.5367  168.3085 C.2     1  UNL1        0.0078
     11 C         139.9604  139.9439  168.3136 C.2     1  UNL1        0.1159
     12 N         139.0944  140.0696  169.5318 N.2     1  UNL1       -0.1549
     13 N         139.6062  140.7881  170.7449 N.am    1  UNL1       -0.0789
     14 O         144.8027  140.0339  163.4355 O.3     1  UNL1       -0.4791
     15 C         144.2114  139.5614  162.1405 C.3     1  UNL1        0.1687
     16 C         143.8297  138.1207  161.9717 C.3     1  UNL1        0.0609
     17 C         143.2384  137.6482  160.6766 C.3     1  UNL1        0.0758
     18 N         143.0289  138.6164  159.5503 N.3     1  UNL1       -0.2737
     19 C         143.4107  140.0572  159.7191 C.3     1  UNL1        0.0758
     20 C         144.0019  140.5296  161.0142 C.3     1  UNL1        0.0609
     21 C         142.4377  138.1440  158.2552 C.3     1  UNL1        0.0575
     22 C         142.6902  136.9881  157.3331 C.3     1  UNL1        0.0160
     23 C         141.6016  137.4758  156.4238 C.3     1  UNL1        0.0028
     24 C         141.3490  138.6316  157.3458 C.3     1  UNL1        0.0160
@<TRIPOS>BOND
     1     7     8    2
     2     8     9    1
     3     9    10    1
     4    10     1    1
     5     1     2   ar
     6     2     3   ar
     7     3     4   ar
     8     4    14    1
     9    14    15    1
    10    15    16    1
    11    16    17    1
    12    17    18    1
    13    18    21    1
    14    21    22    1
    15    22    23    1
    16    23    24    1
    17    18    19    1
    18    19    20    1
    19     4     5   ar
    20     5     6   ar
    21    10    11    2
    22    11    12    1
    23    12    13    2
    24    13     8    1
    25     6     1   ar
    26    20    15    1
    27    24    21    1
@<TRIPOS>MOLECULE
*****
 24 27 0 0 0
SMALL
GASTEIGER

@<TRIPOS>ATOM
      1 C         140.9656  142.5562  166.5920 C.ar    1  UNL1       -0.0018
      2 C         140.0899  143.4059  165.7195 C.ar    1  UNL1        0.0029
      3 C         140.6522  144.0368  164.4802 C.ar    1  UNL1        0.0369
      4 C         142.0901  143.8179  164.1133 C.ar    1  UNL1        0.1384
      5 C         142.9658  142.9683  164.9858 C.ar    1  UNL1        0.0369
      6 C         142.4035  142.3374  166.2252 C.ar    1  UNL1        0.0029
      7 O         139.6894  142.8699  171.6192 O.2     1  UNL1       -0.2711
      8 C         139.7652  142.0822  170.3449 C.2     1  UNL1        0.2671
      9 C         140.3275  142.7130  169.1056 C.3     1  UNL1        0.1166
     10 C         140.4033  141.9254  167.8313 C.2     1  UNL1        0.0078
     11 C         139.9168  140.5069  167.7963 C.2     1  UNL1        0.1159
     12 N         139.3545  139.8761  169.0356 N.2     1  UNL1       -0.1549
     13 N         139.2787  140.6638  170.3099 N.am    1  UNL1       -0.0789
     14 O         142.6523  144.4488  162.8741 O.3     1  UNL1       -0.4791
     15 C         141.9164  144.3309  161.5724 C.3     1  UNL1        0.1687
     16 C         140.9562  145.4045  161.1537 C.3     1  UNL1        0.0609
     17 C         140.2202  145.2866  159.8520 C.3     1  UNL1        0.0758
     18 N         140.4444  144.0951  158.9690 N.3     1  UNL1       -0.2737
     19 C         141.4046  143.0214  159.3876 C.3     1  UNL1        0.0758
     20 C         142.1405  143.1393  160.6893 C.3     1  UNL1        0.0609
     21 C         139.7084  143.9772  157.6673 C.3     1  UNL1        0.0575
     22 C         138.6660  143.0485  157.1185 C.3     1  UNL1        0.0160
     23 C         138.6675  143.8104  155.8264 C.3     1  UNL1        0.0028
     24 C         139.7099  144.7391  156.3751 C.3     1  UNL1        0.0160
@<TRIPOS>BOND
     1     7     8    2
     2     8     9    1
     3     9    10    1
     4    10     1    1
     5     1     2   ar
     6     2     3   ar
     7     3     4   ar
     8     4    14    1
     9    14    15    1
    10    15    16    1
    11    16    17    1
    12    17    18    1
    13    18    21    1
    14    21    22    1
    15    22    23    1
    16    23    24    1
    17    18    19    1
    18    19    20    1
    19     4     5   ar
    20     5     6   ar
    21    10    11    2
    22    11    12    1
    23    12    13    2
    24    13     8    1
    25     6     1   ar
    26    20    15    1
    27    24    21    1
@<TRIPOS>MOLECULE
*****
 24 27 0 0 0
SMALL
GASTEIGER

@<TRIPOS>ATOM
      1 C         140.2472  139.6140  167.3104 C.ar    1  UNL1       -0.0018
      2 C         138.7773  139.3260  167.2297 C.ar    1  UNL1        0.0029
      3 C         138.1999  138.7148  165.9875 C.ar    1  UNL1        0.0369
      4 C         139.0924  138.3916  164.8260 C.ar    1  UNL1        0.1384
      5 C         140.5623  138.6796  164.9068 C.ar    1  UNL1        0.0369
      6 C         141.1397  139.2909  166.1490 C.ar    1  UNL1        0.0029
      7 O         143.7933  139.5891  171.1084 O.2     1  UNL1       -0.2711
      8 C         142.5976  140.2128  170.4517 C.2     1  UNL1        0.2671
      9 C         142.0202  139.6016  169.2095 C.3     1  UNL1        0.1166
     10 C         140.8245  140.2253  168.5527 C.2     1  UNL1        0.0078
     11 C         140.2062  141.4601  169.1381 C.2     1  UNL1        0.1159
     12 N         140.7835  142.0713  170.3803 N.2     1  UNL1       -0.1549
     13 N         141.9792  141.4477  171.0371 N.am    1  UNL1       -0.0789
     14 O         138.5151  137.7804  163.5839 O.3     1  UNL1       -0.4791
     15 C         138.5772  138.5247  162.2831 C.3     1  UNL1        0.1687
     16 C         137.7781  139.7807  162.0988 C.3     1  UNL1        0.0609
     17 C         137.8402  140.5251  160.7980 C.3     1  UNL1        0.0758
     18 N         138.7013  140.0134  159.6815 N.3     1  UNL1       -0.2737
     19 C         139.5003  138.7575  159.8657 C.3     1  UNL1        0.0758
     20 C         139.4383  138.0131  161.1665 C.3     1  UNL1        0.0609
     21 C         138.7634  140.7578  158.3807 C.3     1  UNL1        0.0575
     22 C         137.8872  141.7600  157.6892 C.3     1  UNL1        0.0160
     23 C         138.8512  141.8105  156.5411 C.3     1  UNL1        0.0028
     24 C         139.7274  140.8084  157.2325 C.3     1  UNL1        0.0160
@<TRIPOS>BOND
     1     7     8    2
     2     8     9    1
     3     9    10    1
     4    10     1    1
     5     1     2   ar
     6     2     3   ar
     7     3     4   ar
     8     4    14    1
     9    14    15    1
    10    15    16    1
    11    16    17    1
    12    17    18    1
    13    18    21    1
    14    21    22    1
    15    22    23    1
    16    23    24    1
    17    18    19    1
    18    19    20    1
    19     4     5   ar
    20     5     6   ar
    21    10    11    2
    22    11    12    1
    23    12    13    2
    24    13     8    1
    25     6     1   ar
    26    20    15    1
    27    24    21    1
@<TRIPOS>MOLECULE
*****
 24 27 0 0 0
SMALL
GASTEIGER

@<TRIPOS>ATOM
      1 C         141.8985  142.4233  167.3137 C.ar    1  UNL1       -0.0018
      2 C         143.3580  142.3889  166.9692 C.ar    1  UNL1        0.0029
      3 C         143.8060  142.6964  165.5711 C.ar    1  UNL1        0.0369
      4 C         142.7945  143.0381  164.5174 C.ar    1  UNL1        0.1384
      5 C         141.3350  143.0724  164.8619 C.ar    1  UNL1        0.0369
      6 C         140.8870  142.7650  166.2601 C.ar    1  UNL1        0.0029
      7 O         138.9430  143.5378  171.4396 O.2     1  UNL1       -0.2711
      8 C         139.9727  142.6731  170.7748 C.2     1  UNL1        0.2671
      9 C         140.4207  142.9805  169.3767 C.3     1  UNL1        0.1166
     10 C         141.4505  142.1158  168.7119 C.2     1  UNL1        0.0078
     11 C         142.0322  140.9438  169.4452 C.2     1  UNL1        0.1159
     12 N         141.5842  140.6364  170.8433 N.2     1  UNL1       -0.1549
     13 N         140.5545  141.5010  171.5081 N.am    1  UNL1       -0.0789
     14 O         143.2425  143.3455  163.1193 O.3     1  UNL1       -0.4791
     15 C         143.1336  142.2995  162.0498 C.3     1  UNL1        0.1687
     16 C         142.9653  140.8572  162.4256 C.3     1  UNL1        0.0609
     17 C         142.8564  139.8112  161.3561 C.3     1  UNL1        0.0758
     18 N         142.9158  140.2075  159.9106 N.3     1  UNL1       -0.2737
     19 C         143.0841  141.6498  159.5347 C.3     1  UNL1        0.0758
     20 C         143.1930  142.6958  160.6043 C.3     1  UNL1        0.0609
     21 C         142.8069  139.1614  158.8411 C.3     1  UNL1        0.0575
     22 C         142.7355  137.6632  158.8261 C.3     1  UNL1        0.0160
     23 C         142.6529  137.6821  157.3285 C.3     1  UNL1        0.0028
     24 C         142.7242  139.1804  157.3434 C.3     1  UNL1        0.0160
@<TRIPOS>BOND
     1     7     8    2
     2     8     9    1
     3     9    10    1
     4    10     1    1
     5     1     2   ar
     6     2     3   ar
     7     3     4   ar
     8     4    14    1
     9    14    15    1
    10    15    16    1
    11    16    17    1
    12    17    18    1
    13    18    21    1
    14    21    22    1
    15    22    23    1
    16    23    24    1
    17    18    19    1
    18    19    20    1
    19     4     5   ar
    20     5     6   ar
    21    10    11    2
    22    11    12    1
    23    12    13    2
    24    13     8    1
    25     6     1   ar
    26    20    15    1
    27    24    21    1
