@<TRIPOS>MOLECULE
*****
 30 33 0 0 0
SMALL
GASTEIGER

@<TRIPOS>ATOM
      1 N         142.7075  139.7356  162.3855 N.am    1  UNL1       -0.2638
      2 C         143.2850  138.8408  163.4418 C.3     1  UNL1        0.1164
      3 C         141.9571  140.9734  162.7793 C.2     1  UNL1        0.3078
      4 O         141.3796  141.8683  161.7231 O.2     1  UNL1       -0.2523
      5 N         141.7843  141.3162  164.2294 N.am    1  UNL1       -0.2540
      6 C         142.3030  140.5215  165.3911 C.3     1  UNL1        0.1221
      7 C         141.9017  141.2281  166.6520 C.2     1  UNL1       -0.0024
      8 C         141.1350  142.4593  166.2696 C.2     1  UNL1       -0.0047
      9 C         141.0625  142.5138  164.7723 C.3     1  UNL1        0.1217
     10 C         142.2125  140.7817  168.0499 C.ar    1  UNL1        0.0271
     11 C         142.5052  139.3371  168.3282 C.ar    1  UNL1        0.0316
     12 C         142.8160  138.8907  169.7261 C.ar    1  UNL1        0.1403
     13 F         143.1087  137.4460  170.0045 F       1  UNL1       -0.2042
     14 C         142.8341  139.8889  170.8457 C.ar    1  UNL1        0.0319
     15 C         142.5415  141.3335  170.5673 C.ar    1  UNL1        0.0319
     16 C         142.2307  141.7799  169.1694 C.ar    1  UNL1        0.1400
     17 F         141.9380  143.2244  168.8911 F       1  UNL1       -0.2042
     18 C         143.3988  138.3644  156.5854 C.3     1  UNL1        0.0896
     19 N         143.2260  138.7072  158.0354 N.3     1  UNL1       -0.2714
     20 C         143.7904  139.9877  158.5758 C.3     1  UNL1        0.0738
     21 C         143.6176  140.3305  160.0258 C.3     1  UNL1        0.0372
     22 C         142.8803  139.3928  160.9355 C.3     1  UNL1        0.0797
     23 C         142.3160  138.1125  160.3951 C.3     1  UNL1        0.0372
     24 C         142.4888  137.7697  158.9450 C.3     1  UNL1        0.0738
     25 C         140.3868  143.5789  163.9605 C.ar    1  UNL1       -0.0001
     26 C         138.9134  143.4959  163.6923 C.ar    1  UNL1       -0.0023
     27 C         138.2376  144.5610  162.8805 C.ar    1  UNL1       -0.0003
     28 C         139.0355  145.7090  162.3369 C.ar    1  UNL1       -0.0000
     29 C         140.5090  145.7920  162.6051 C.ar    1  UNL1       -0.0003
     30 C         141.1847  144.7269  163.4169 C.ar    1  UNL1       -0.0023
@<TRIPOS>BOND
     1    18    19    1
     2    19    20    1
     3    20    21    1
     4    21    22    1
     5    22     1    1
     6     1     2    1
     7     1     3   am
     8     3     4    2
     9     3     5   am
    10     5     6    1
    11     6     7    1
    12     7    10    1
    13    10    11   ar
    14    11    12   ar
    15    12    13    1
    16    12    14   ar
    17    14    15   ar
    18    15    16   ar
    19    16    17    1
    20     7     8    2
    21     8     9    1
    22     9    25    1
    23    25    26   ar
    24    26    27   ar
    25    27    28   ar
    26    28    29   ar
    27    29    30   ar
    28    22    23    1
    29    23    24    1
    30    24    19    1
    31     9     5    1
    32    30    25   ar
    33    16    10   ar
@<TRIPOS>MOLECULE
*****
 30 33 0 0 0
SMALL
GASTEIGER

@<TRIPOS>ATOM
      1 N         141.9672  143.7454  162.1901 N.am    1  UNL1       -0.2638
      2 C         142.6107  144.6084  163.2346 C.3     1  UNL1        0.1164
      3 C         141.2751  142.4756  162.5886 C.2     1  UNL1        0.3078
      4 O         140.6316  141.6126  161.5441 O.2     1  UNL1       -0.2523
      5 N         141.2264  142.0690  164.0316 N.am    1  UNL1       -0.2540
      6 C         141.8217  142.8262  165.1816 C.3     1  UNL1        0.1221
      7 C         141.5371  142.0589  166.4387 C.2     1  UNL1       -0.0024
      8 C         140.7660  140.8276  166.0657 C.2     1  UNL1       -0.0047
      9 C         140.5740  140.8338  164.5781 C.3     1  UNL1        0.1217
     10 C         141.9510  142.4538  167.8253 C.ar    1  UNL1        0.0271
     11 C         143.3693  142.2532  168.2703 C.ar    1  UNL1        0.0316
     12 C         143.7832  142.6481  169.6570 C.ar    1  UNL1        0.1403
     13 F         145.2017  142.4476  170.1020 F       1  UNL1       -0.2042
     14 C         142.7788  143.2435  170.5986 C.ar    1  UNL1        0.0319
     15 C         141.3604  143.4440  170.1536 C.ar    1  UNL1        0.0319
     16 C         140.9465  143.0492  168.7670 C.ar    1  UNL1        0.1400
     17 F         139.5282  143.2497  168.3220 F       1  UNL1       -0.2042
     18 C         142.1619  145.3719  156.4181 C.3     1  UNL1        0.0896
     19 N         142.1132  144.9653  157.8611 N.3     1  UNL1       -0.2714
     20 C         141.1983  145.6797  158.8111 C.3     1  UNL1        0.0738
     21 C         141.1496  145.2730  160.2542 C.3     1  UNL1        0.0372
     22 C         142.0159  144.1520  160.7471 C.3     1  UNL1        0.0797
     23 C         142.9308  143.4377  159.7970 C.3     1  UNL1        0.0372
     24 C         142.9794  143.8443  158.3540 C.3     1  UNL1        0.0738
     25 C         139.8556  139.7884  163.7774 C.ar    1  UNL1       -0.0001
     26 C         140.5197  138.4739  163.4927 C.ar    1  UNL1       -0.0023
     27 C         139.8014  137.4285  162.6921 C.ar    1  UNL1       -0.0003
     28 C         138.4188  137.6976  162.1762 C.ar    1  UNL1       -0.0000
     29 C         137.7547  139.0120  162.4609 C.ar    1  UNL1       -0.0003
     30 C         138.4730  140.0575  163.2615 C.ar    1  UNL1       -0.0023
@<TRIPOS>BOND
     1    18    19    1
     2    19    20    1
     3    20    21    1
     4    21    22    1
     5    22     1    1
     6     1     2    1
     7     1     3   am
     8     3     4    2
     9     3     5   am
    10     5     6    1
    11     6     7    1
    12     7    10    1
    13    10    11   ar
    14    11    12   ar
    15    12    13    1
    16    12    14   ar
    17    14    15   ar
    18    15    16   ar
    19    16    17    1
    20     7     8    2
    21     8     9    1
    22     9    25    1
    23    25    26   ar
    24    26    27   ar
    25    27    28   ar
    26    28    29   ar
    27    29    30   ar
    28    22    23    1
    29    23    24    1
    30    24    19    1
    31     9     5    1
    32    30    25   ar
    33    16    10   ar
@<TRIPOS>MOLECULE
*****
 30 33 0 0 0
SMALL
GASTEIGER

@<TRIPOS>ATOM
      1 N         141.2383  139.0146  161.8783 N.am    1  UNL1       -0.2638
      2 C         141.5920  137.9698  162.8948 C.3     1  UNL1        0.1164
      3 C         140.9309  140.4154  162.3183 C.2     1  UNL1        0.3078
      4 O         140.5773  141.4602  161.3018 O.2     1  UNL1       -0.2523
      5 N         140.9772  140.7712  163.7747 N.am    1  UNL1       -0.2540
      6 C         141.3132  139.8380  164.9001 C.3     1  UNL1        0.1221
      7 C         141.2393  140.6128  166.1824 C.2     1  UNL1       -0.0024
      8 C         140.8576  142.0248  165.8496 C.2     1  UNL1       -0.0047
      9 C         140.6957  142.1226  164.3616 C.3     1  UNL1        0.1217
     10 C         141.5011  140.0708  167.5563 C.ar    1  UNL1        0.0271
     11 C         140.5329  140.3464  168.6684 C.ar    1  UNL1        0.0316
     12 C         140.7947  139.8044  170.0423 C.ar    1  UNL1        0.1403
     13 F         139.8265  140.0800  171.1544 F       1  UNL1       -0.2042
     14 C         142.0247  138.9867  170.3041 C.ar    1  UNL1        0.0319
     15 C         142.9929  138.7111  169.1921 C.ar    1  UNL1        0.0319
     16 C         142.7311  139.2531  167.8182 C.ar    1  UNL1        0.1400
     17 F         143.6993  138.9775  166.7062 F       1  UNL1       -0.2042
     18 C         141.0531  137.5912  156.0526 C.3     1  UNL1        0.0896
     19 N         141.0994  137.9471  157.5090 N.3     1  UNL1       -0.2714
     20 C         142.4148  137.9923  158.2286 C.3     1  UNL1        0.0738
     21 C         142.4611  138.3481  159.6850 C.3     1  UNL1        0.0372
     22 C         141.1920  138.6588  160.4219 C.3     1  UNL1        0.0797
     23 C         139.8767  138.6135  159.7023 C.3     1  UNL1        0.0372
     24 C         139.8304  138.2577  158.2459 C.3     1  UNL1        0.0738
     25 C         140.3184  143.3555  163.5950 C.ar    1  UNL1       -0.0001
     26 C         138.8727  143.6830  163.3655 C.ar    1  UNL1       -0.0023
     27 C         138.4954  144.9158  162.5989 C.ar    1  UNL1       -0.0003
     28 C         139.5639  145.8212  162.0618 C.ar    1  UNL1       -0.0000
     29 C         141.0096  145.4938  162.2912 C.ar    1  UNL1       -0.0003
     30 C         141.3869  144.2610  163.0578 C.ar    1  UNL1       -0.0023
@<TRIPOS>BOND
     1    18    19    1
     2    19    20    1
     3    20    21    1
     4    21    22    1
     5    22     1    1
     6     1     2    1
     7     1     3   am
     8     3     4    2
     9     3     5   am
    10     5     6    1
    11     6     7    1
    12     7    10    1
    13    10    11   ar
    14    11    12   ar
    15    12    13    1
    16    12    14   ar
    17    14    15   ar
    18    15    16   ar
    19    16    17    1
    20     7     8    2
    21     8     9    1
    22     9    25    1
    23    25    26   ar
    24    26    27   ar
    25    27    28   ar
    26    28    29   ar
    27    29    30   ar
    28    22    23    1
    29    23    24    1
    30    24    19    1
    31     9     5    1
    32    30    25   ar
    33    16    10   ar
@<TRIPOS>MOLECULE
*****
 30 33 0 0 0
SMALL
GASTEIGER

@<TRIPOS>ATOM
      1 N         141.6571  143.7931  161.9118 N.am    1  UNL1       -0.2638
      2 C         142.2920  144.6247  162.9867 C.3     1  UNL1        0.1164
      3 C         140.8764  142.5651  162.2763 C.2     1  UNL1        0.3078
      4 O         140.2415  141.7336  161.2014 O.2     1  UNL1       -0.2523
      5 N         140.7307  142.1688  163.7156 N.am    1  UNL1       -0.2540
      6 C         141.3063  142.8979  164.8935 C.3     1  UNL1        0.1221
      7 C         140.9152  142.1534  166.1356 C.2     1  UNL1       -0.0024
      8 C         140.0979  140.9644  165.7255 C.2     1  UNL1       -0.0047
      9 C         139.9839  140.9739  164.2299 C.3     1  UNL1        0.1217
     10 C         141.2777  142.5317  167.5412 C.ar    1  UNL1        0.0271
     11 C         140.2849  143.2536  168.4033 C.ar    1  UNL1        0.0316
     12 C         140.6474  143.6318  169.8088 C.ar    1  UNL1        0.1403
     13 F         139.6547  144.3537  170.6711 F       1  UNL1       -0.2042
     14 C         142.0027  143.2883  170.3522 C.ar    1  UNL1        0.0319
     15 C         142.9955  142.5664  169.4900 C.ar    1  UNL1        0.0319
     16 C         142.6330  142.1881  168.0845 C.ar    1  UNL1        0.1400
     17 F         143.6257  141.4663  167.2224 F       1  UNL1       -0.2042
     18 C         142.2399  145.3785  156.1545 C.3     1  UNL1        0.0896
     19 N         142.0942  144.9821  157.5938 N.3     1  UNL1       -0.2714
     20 C         142.9453  143.8838  158.1592 C.3     1  UNL1        0.0738
     21 C         142.7996  143.4875  159.5985 C.3     1  UNL1        0.0372
     22 C         141.8028  144.1894  160.4725 C.3     1  UNL1        0.0797
     23 C         140.9519  145.2877  159.9072 C.3     1  UNL1        0.0372
     24 C         141.0976  145.6840  158.4678 C.3     1  UNL1        0.0738
     25 C         139.2516  139.9655  163.3950 C.ar    1  UNL1       -0.0001
     26 C         139.6877  138.5304  163.3983 C.ar    1  UNL1       -0.0023
     27 C         138.9555  137.5220  162.5635 C.ar    1  UNL1       -0.0003
     28 C         137.7871  137.9489  161.7253 C.ar    1  UNL1       -0.0000
     29 C         137.3509  139.3840  161.7220 C.ar    1  UNL1       -0.0003
     30 C         138.0832  140.3924  162.5568 C.ar    1  UNL1       -0.0023
@<TRIPOS>BOND
     1    18    19    1
     2    19    20    1
     3    20    21    1
     4    21    22    1
     5    22     1    1
     6     1     2    1
     7     1     3   am
     8     3     4    2
     9     3     5   am
    10     5     6    1
    11     6     7    1
    12     7    10    1
    13    10    11   ar
    14    11    12   ar
    15    12    13    1
    16    12    14   ar
    17    14    15   ar
    18    15    16   ar
    19    16    17    1
    20     7     8    2
    21     8     9    1
    22     9    25    1
    23    25    26   ar
    24    26    27   ar
    25    27    28   ar
    26    28    29   ar
    27    29    30   ar
    28    22    23    1
    29    23    24    1
    30    24    19    1
    31     9     5    1
    32    30    25   ar
    33    16    10   ar
@<TRIPOS>MOLECULE
*****
 30 33 0 0 0
SMALL
GASTEIGER

@<TRIPOS>ATOM
      1 N         141.5582  139.4429  163.1079 N.am    1  UNL1       -0.2638
      2 C         141.7342  138.5820  164.3236 C.3     1  UNL1        0.1164
      3 C         141.1171  140.8689  163.2562 C.2     1  UNL1        0.3078
      4 O         140.9411  141.7298  162.0406 O.2     1  UNL1       -0.2523
      5 N         140.8519  141.4340  164.6202 N.am    1  UNL1       -0.2540
      6 C         140.9843  140.6978  165.9205 C.3     1  UNL1        0.1221
      7 C         140.6220  141.6433  167.0273 C.2     1  UNL1       -0.0024
      8 C         140.2657  142.9636  166.4111 C.2     1  UNL1       -0.0047
      9 C         140.4078  142.8342  164.9234 C.3     1  UNL1        0.1217
     10 C         140.6169  141.3243  168.4930 C.ar    1  UNL1        0.0271
     11 C         141.5406  142.0541  169.4225 C.ar    1  UNL1        0.0316
     12 C         141.5356  141.7351  170.8882 C.ar    1  UNL1        0.1403
     13 F         142.4593  142.4649  171.8178 F       1  UNL1       -0.2042
     14 C         140.6067  140.6863  171.4243 C.ar    1  UNL1        0.0319
     15 C         139.6830  139.9566  170.4948 C.ar    1  UNL1        0.0319
     16 C         139.6881  140.2755  169.0291 C.ar    1  UNL1        0.1400
     17 F         138.7643  139.5458  168.0995 F       1  UNL1       -0.2042
     18 C         142.6189  137.1828  157.6520 C.3     1  UNL1        0.0896
     19 N         142.3538  137.7478  159.0160 N.3     1  UNL1       -0.2714
     20 C         141.0749  138.4833  159.2875 C.3     1  UNL1        0.0738
     21 C         140.8097  139.0484  160.6515 C.3     1  UNL1        0.0372
     22 C         141.8234  138.8779  161.7440 C.3     1  UNL1        0.0797
     23 C         143.1022  138.1424  161.4724 C.3     1  UNL1        0.0372
     24 C         143.3674  137.5774  160.1085 C.3     1  UNL1        0.0738
     25 C         140.1508  143.9154  163.9159 C.ar    1  UNL1       -0.0001
     26 C         141.2740  144.7997  163.4618 C.ar    1  UNL1       -0.0023
     27 C         141.0170  145.8809  162.4542 C.ar    1  UNL1       -0.0003
     28 C         139.6368  146.0776  161.9008 C.ar    1  UNL1       -0.0000
     29 C         138.5136  145.1932  162.3549 C.ar    1  UNL1       -0.0003
     30 C         138.7705  144.1121  163.3624 C.ar    1  UNL1       -0.0023
@<TRIPOS>BOND
     1    18    19    1
     2    19    20    1
     3    20    21    1
     4    21    22    1
     5    22     1    1
     6     1     2    1
     7     1     3   am
     8     3     4    2
     9     3     5   am
    10     5     6    1
    11     6     7    1
    12     7    10    1
    13    10    11   ar
    14    11    12   ar
    15    12    13    1
    16    12    14   ar
    17    14    15   ar
    18    15    16   ar
    19    16    17    1
    20     7     8    2
    21     8     9    1
    22     9    25    1
    23    25    26   ar
    24    26    27   ar
    25    27    28   ar
    26    28    29   ar
    27    29    30   ar
    28    22    23    1
    29    23    24    1
    30    24    19    1
    31     9     5    1
    32    30    25   ar
    33    16    10   ar
@<TRIPOS>MOLECULE
*****
 30 33 0 0 0
SMALL
GASTEIGER

@<TRIPOS>ATOM
      1 N         140.1350  143.4861  161.9218 N.am    1  UNL1       -0.2638
      2 C         139.5130  144.2394  163.0601 C.3     1  UNL1        0.1164
      3 C         140.8724  142.2062  162.1834 C.2     1  UNL1        0.3078
      4 O         141.4944  141.4529  161.0452 O.2     1  UNL1       -0.2523
      5 N         140.9877  141.6798  163.5833 N.am    1  UNL1       -0.2540
      6 C         140.4205  142.3200  164.8156 C.3     1  UNL1        0.1221
      7 C         140.7727  141.4565  165.9905 C.2     1  UNL1       -0.0024
      8 C         141.5575  140.2827  165.4844 C.2     1  UNL1       -0.0047
      9 C         141.6904  140.4207  163.9966 C.3     1  UNL1        0.1217
     10 C         140.4047  141.7206  167.4205 C.ar    1  UNL1        0.0271
     11 C         140.6970  143.0571  168.0356 C.ar    1  UNL1        0.0316
     12 C         140.3290  143.3211  169.4655 C.ar    1  UNL1        0.1403
     13 F         140.6212  144.6577  170.0807 F       1  UNL1       -0.2042
     14 C         139.6686  142.2487  170.2804 C.ar    1  UNL1        0.0319
     15 C         139.3763  140.9123  169.6653 C.ar    1  UNL1        0.0319
     16 C         139.7444  140.6482  168.2353 C.ar    1  UNL1        0.1400
     17 F         139.4521  139.3117  167.6202 F       1  UNL1       -0.2042
     18 C         139.6738  145.5919  156.3225 C.3     1  UNL1        0.0896
     19 N         139.7891  145.0655  157.7223 N.3     1  UNL1       -0.2714
     20 C         140.4466  145.8962  158.7843 C.3     1  UNL1        0.0738
     21 C         140.5619  145.3698  160.1841 C.3     1  UNL1        0.0372
     22 C         140.0197  144.0125  160.5220 C.3     1  UNL1        0.0797
     23 C         139.3623  143.1819  159.4601 C.3     1  UNL1        0.0372
     24 C         139.2470  143.7083  158.0603 C.3     1  UNL1        0.0738
     25 C         142.4012  139.4669  163.0827 C.ar    1  UNL1       -0.0001
     26 C         143.8790  139.5991  162.8632 C.ar    1  UNL1       -0.0023
     27 C         144.5898  138.6453  161.9493 C.ar    1  UNL1       -0.0003
     28 C         143.8226  137.5595  161.2550 C.ar    1  UNL1       -0.0000
     29 C         142.3446  137.4273  161.4744 C.ar    1  UNL1       -0.0003
     30 C         141.6339  138.3810  162.3883 C.ar    1  UNL1       -0.0023
@<TRIPOS>BOND
     1    18    19    1
     2    19    20    1
     3    20    21    1
     4    21    22    1
     5    22     1    1
     6     1     2    1
     7     1     3   am
     8     3     4    2
     9     3     5   am
    10     5     6    1
    11     6     7    1
    12     7    10    1
    13    10    11   ar
    14    11    12   ar
    15    12    13    1
    16    12    14   ar
    17    14    15   ar
    18    15    16   ar
    19    16    17    1
    20     7     8    2
    21     8     9    1
    22     9    25    1
    23    25    26   ar
    24    26    27   ar
    25    27    28   ar
    26    28    29   ar
    27    29    30   ar
    28    22    23    1
    29    23    24    1
    30    24    19    1
    31     9     5    1
    32    30    25   ar
    33    16    10   ar
@<TRIPOS>MOLECULE
*****
 30 33 0 0 0
SMALL
GASTEIGER

@<TRIPOS>ATOM
      1 N         140.9545  139.4311  164.5078 N.am    1  UNL1       -0.2638
      2 C         141.2414  138.1021  163.8742 C.3     1  UNL1        0.1164
      3 C         140.6784  140.6282  163.6471 C.2     1  UNL1        0.3078
      4 O         140.3914  141.9572  164.2806 O.2     1  UNL1       -0.2523
      5 N         140.6892  140.4963  162.1530 N.am    1  UNL1       -0.2540
      6 C         140.9586  139.2388  161.3808 C.3     1  UNL1        0.1221
      7 C         140.8684  139.5641  159.9192 C.2     1  UNL1       -0.0024
      8 C         140.5433  141.0225  159.7881 C.2     1  UNL1       -0.0047
      9 C         140.4325  141.5987  161.1686 C.3     1  UNL1        0.1217
     10 C         141.0682  138.6001  158.7876 C.ar    1  UNL1        0.0271
     11 C         139.9134  138.2301  157.9048 C.ar    1  UNL1        0.0316
     12 C         140.1132  137.2661  156.7731 C.ar    1  UNL1        0.1403
     13 F         138.9583  136.8960  155.8902 F       1  UNL1       -0.2042
     14 C         141.4679  136.6720  156.5242 C.ar    1  UNL1        0.0319
     15 C         142.6228  137.0420  157.4070 C.ar    1  UNL1        0.0319
     16 C         142.4229  138.0060  158.5387 C.ar    1  UNL1        0.1400
     17 F         143.5778  138.3760  159.4215 F       1  UNL1       -0.2042
     18 C         140.9112  139.9588  170.4844 C.3     1  UNL1        0.0896
     19 N         140.9220  139.8268  168.9902 N.3     1  UNL1       -0.2714
     20 C         139.6342  139.8823  168.2231 C.3     1  UNL1        0.0738
     21 C         139.6450  139.7503  166.7289 C.3     1  UNL1        0.0372
     22 C         140.9437  139.5630  166.0019 C.3     1  UNL1        0.0797
     23 C         142.2314  139.5076  166.7691 C.3     1  UNL1        0.0372
     24 C         142.2206  139.6395  168.2632 C.3     1  UNL1        0.0738
     25 C         140.1200  143.0265  161.5056 C.ar    1  UNL1       -0.0001
     26 C         138.7873  143.3840  162.0938 C.ar    1  UNL1       -0.0023
     27 C         138.4748  144.8118  162.4308 C.ar    1  UNL1       -0.0003
     28 C         139.4951  145.8822  162.1795 C.ar    1  UNL1       -0.0000
     29 C         140.8278  145.5249  161.5913 C.ar    1  UNL1       -0.0003
     30 C         141.1404  144.0970  161.2544 C.ar    1  UNL1       -0.0023
@<TRIPOS>BOND
     1    18    19    1
     2    19    20    1
     3    20    21    1
     4    21    22    1
     5    22     1    1
     6     1     2    1
     7     1     3   am
     8     3     4    2
     9     3     5   am
    10     5     6    1
    11     6     7    1
    12     7    10    1
    13    10    11   ar
    14    11    12   ar
    15    12    13    1
    16    12    14   ar
    17    14    15   ar
    18    15    16   ar
    19    16    17    1
    20     7     8    2
    21     8     9    1
    22     9    25    1
    23    25    26   ar
    24    26    27   ar
    25    27    28   ar
    26    28    29   ar
    27    29    30   ar
    28    22    23    1
    29    23    24    1
    30    24    19    1
    31     9     5    1
    32    30    25   ar
    33    16    10   ar
@<TRIPOS>MOLECULE
*****
 30 33 0 0 0
SMALL
GASTEIGER

@<TRIPOS>ATOM
      1 N         142.8030  138.3939  158.3066 N.am    1  UNL1       -0.2638
      2 C         142.4219  138.3911  159.7573 C.3     1  UNL1        0.1164
      3 C         143.5486  139.5604  157.7292 C.2     1  UNL1        0.3078
      4 O         143.9296  139.5632  156.2784 O.2     1  UNL1       -0.2523
      5 N         143.9132  140.7241  158.6026 N.am    1  UNL1       -0.2540
      6 C         143.6012  140.8619  160.0634 C.3     1  UNL1        0.1221
      7 C         144.1490  142.1773  160.5322 C.2     1  UNL1       -0.0024
      8 C         144.7995  142.8524  159.3612 C.2     1  UNL1       -0.0047
      9 C         144.6537  141.9543  158.1687 C.3     1  UNL1        0.1217
     10 C         144.0616  142.7219  161.9271 C.ar    1  UNL1        0.0271
     11 C         143.2395  143.9455  162.2043 C.ar    1  UNL1        0.0316
     12 C         143.1521  144.4901  163.5992 C.ar    1  UNL1        0.1403
     13 F         142.3300  145.7138  163.8765 F       1  UNL1       -0.2042
     14 C         143.8868  143.8111  164.7169 C.ar    1  UNL1        0.0319
     15 C         144.7090  142.5875  164.4397 C.ar    1  UNL1        0.0319
     16 C         144.7963  142.0429  163.0448 C.ar    1  UNL1        0.1400
     17 F         145.6185  140.8193  162.7675 F       1  UNL1       -0.2042
     18 C         141.3446  133.7391  154.8128 C.3     1  UNL1        0.0896
     19 N         141.7092  134.9028  155.6863 N.3     1  UNL1       -0.2714
     20 C         140.8874  136.1571  155.6462 C.3     1  UNL1        0.0738
     21 C         141.2520  137.3208  156.5196 C.3     1  UNL1        0.0372
     22 C         142.4384  137.2302  157.4331 C.3     1  UNL1        0.0797
     23 C         143.2600  135.9759  157.4732 C.3     1  UNL1        0.0372
     24 C         142.8955  134.8123  156.5998 C.3     1  UNL1        0.0738
     25 C         145.1597  142.2368  156.7852 C.ar    1  UNL1       -0.0001
     26 C         144.2191  142.7401  155.7308 C.ar    1  UNL1       -0.0023
     27 C         144.7251  143.0226  154.3472 C.ar    1  UNL1       -0.0003
     28 C         146.1718  142.8017  154.0182 C.ar    1  UNL1       -0.0000
     29 C         147.1124  142.2983  155.0725 C.ar    1  UNL1       -0.0003
     30 C         146.6065  142.0158  156.4561 C.ar    1  UNL1       -0.0023
@<TRIPOS>BOND
     1    18    19    1
     2    19    20    1
     3    20    21    1
     4    21    22    1
     5    22     1    1
     6     1     2    1
     7     1     3   am
     8     3     4    2
     9     3     5   am
    10     5     6    1
    11     6     7    1
    12     7    10    1
    13    10    11   ar
    14    11    12   ar
    15    12    13    1
    16    12    14   ar
    17    14    15   ar
    18    15    16   ar
    19    16    17    1
    20     7     8    2
    21     8     9    1
    22     9    25    1
    23    25    26   ar
    24    26    27   ar
    25    27    28   ar
    26    28    29   ar
    27    29    30   ar
    28    22    23    1
    29    23    24    1
    30    24    19    1
    31     9     5    1
    32    30    25   ar
    33    16    10   ar
@<TRIPOS>MOLECULE
*****
 30 33 0 0 0
SMALL
GASTEIGER

@<TRIPOS>ATOM
      1 N         142.7564  138.0744  157.7874 N.am    1  UNL1       -0.2638
      2 C         142.3769  138.1598  159.2361 C.3     1  UNL1        0.1164
      3 C         143.5003  139.2042  157.1391 C.2     1  UNL1        0.3078
      4 O         143.8798  139.1189  155.6905 O.2     1  UNL1       -0.2523
      5 N         143.8646  140.4194  157.9396 N.am    1  UNL1       -0.2540
      6 C         143.5540  140.6458  159.3896 C.3     1  UNL1        0.1221
      7 C         144.1009  141.9879  159.7766 C.2     1  UNL1       -0.0024
      8 C         144.7495  142.5909  158.5660 C.2     1  UNL1       -0.0047
      9 C         144.6034  141.6215  157.4306 C.3     1  UNL1        0.1217
     10 C         144.0144  142.6165  161.1358 C.ar    1  UNL1        0.0271
     11 C         144.9253  142.1553  162.2347 C.ar    1  UNL1        0.0316
     12 C         144.8388  142.7839  163.5939 C.ar    1  UNL1        0.1403
     13 F         145.7497  142.3227  164.6929 F       1  UNL1       -0.2042
     14 C         143.8414  143.8737  163.8542 C.ar    1  UNL1        0.0319
     15 C         142.9306  144.3348  162.7552 C.ar    1  UNL1        0.0319
     16 C         143.0171  143.7062  161.3961 C.ar    1  UNL1        0.1400
     17 F         142.1062  144.1674  160.2972 F       1  UNL1       -0.2042
     18 C         141.2992  133.2138  154.5858 C.3     1  UNL1        0.0896
     19 N         141.6635  134.4289  155.3862 N.3     1  UNL1       -0.2714
     20 C         142.8735  134.4082  156.2725 C.3     1  UNL1        0.0738
     21 C         143.2378  135.6233  157.0729 C.3     1  UNL1        0.0372
     22 C         142.3921  136.8593  156.9870 C.3     1  UNL1        0.0797
     23 C         141.1822  136.8800  156.1008 C.3     1  UNL1        0.0372
     24 C         140.8178  135.6648  155.3003 C.3     1  UNL1        0.0738
     25 C         145.1077  141.8196  156.0319 C.ar    1  UNL1       -0.0001
     26 C         146.5011  141.3985  155.6703 C.ar    1  UNL1       -0.0023
     27 C         147.0054  141.5965  154.2715 C.ar    1  UNL1       -0.0003
     28 C         146.1160  142.2157  153.2344 C.ar    1  UNL1       -0.0000
     29 C         144.7225  142.6368  153.5959 C.ar    1  UNL1       -0.0003
     30 C         144.2183  142.4387  154.9947 C.ar    1  UNL1       -0.0023
@<TRIPOS>BOND
     1    18    19    1
     2    19    20    1
     3    20    21    1
     4    21    22    1
     5    22     1    1
     6     1     2    1
     7     1     3   am
     8     3     4    2
     9     3     5   am
    10     5     6    1
    11     6     7    1
    12     7    10    1
    13    10    11   ar
    14    11    12   ar
    15    12    13    1
    16    12    14   ar
    17    14    15   ar
    18    15    16   ar
    19    16    17    1
    20     7     8    2
    21     8     9    1
    22     9    25    1
    23    25    26   ar
    24    26    27   ar
    25    27    28   ar
    26    28    29   ar
    27    29    30   ar
    28    22    23    1
    29    23    24    1
    30    24    19    1
    31     9     5    1
    32    30    25   ar
    33    16    10   ar
