@<TRIPOS>MOLECULE
*****
 31 33 0 0 0
SMALL
GASTEIGER

@<TRIPOS>ATOM
      1 C         142.4571  139.5729  163.8340 C.ar    1  UNL1        0.2204
      2 N         142.5823  138.2118  163.2160 N.ar    1  UNL1       -0.2089
      3 C         143.1514  138.0642  161.8361 C.ar    1  UNL1        0.1402
      4 C         143.5955  139.2776  161.0741 C.ar    1  UNL1        0.1773
      5 C         143.4703  140.6386  161.6921 C.ar    1  UNL1        0.1402
      6 N         142.9011  140.7862  163.0721 N.ar    1  UNL1       -0.2089
      7 C         139.5205  139.1696  164.2965 C.3     1  UNL1        0.0233
      8 C         140.4197  139.5189  165.4452 C.3     1  UNL1        0.0955
      9 C         139.8506  139.6665  166.8252 C.3     1  UNL1        0.1165
     10 N         140.7497  140.0158  167.9739 N.am    1  UNL1       -0.2426
     11 C         140.1805  140.1634  169.3539 C.2     1  UNL1        0.4052
     12 O         138.7123  139.9618  169.5851 O.2     1  UNL1       -0.2262
     13 C         142.2180  140.2174  167.7427 C.3     1  UNL1        0.1182
     14 C         142.7871  140.0698  166.3627 C.3     1  UNL1        0.1152
     15 N         141.8879  139.7205  165.2140 N.pl3   1  UNL1       -0.2764
     16 O         141.0797  140.5127  170.5026 O.3     1  UNL1       -0.4252
     17 C         141.1049  141.9144  171.0360 C.3     1  UNL1        0.3125
     18 C         140.6412  143.0526  170.1761 C.3     1  UNL1        0.4382
     19 F         140.1776  144.1908  169.3161 F       1  UNL1       -0.1663
     20 F         141.9896  143.1071  169.5212 F       1  UNL1       -0.1663
     21 F         139.2928  142.9981  170.8309 F       1  UNL1       -0.1663
     22 O         144.1646  139.1299  159.6942 O.3     1  UNL1       -0.4675
     23 C         143.4087  139.6572  158.5107 C.3     1  UNL1        0.2329
     24 C         142.1309  138.9984  158.0827 C.ar    1  UNL1        0.0339
     25 C         140.8421  139.3461  158.7669 C.ar    1  UNL1        0.0207
     26 C         139.5643  138.6872  158.3388 C.ar    1  UNL1        0.0987
     27 N         139.5753  137.6807  157.2267 N.ar    1  UNL1       -0.2416
     28 C         140.8642  137.3330  156.5426 C.ar    1  UNL1        0.1089
     29 C         142.1420  137.9918  156.9706 C.ar    1  UNL1        0.0871
     30 C         143.4308  137.6442  156.2865 C.1     1  UNL1        0.1018
     31 N         144.7196  137.2965  155.6023 N.1     1  UNL1       -0.1908
@<TRIPOS>BOND
     1     8     7    1
     2     8     9    1
     3     9    10    1
     4    10    11   am
     5    11    12    2
     6    11    16    1
     7    16    17    1
     8    17    18    1
     9    18    19    1
    10    18    20    1
    11    18    21    1
    12    10    13    1
    13    13    14    1
    14    14    15    1
    15    15     1    1
    16     1     2   ar
    17     2     3   ar
    18     3     4   ar
    19     4    22    1
    20    22    23    1
    21    23    24    1
    22    24    25   ar
    23    25    26   ar
    24    26    27   ar
    25    27    28   ar
    26    28    29   ar
    27    29    30    1
    28    30    31    3
    29     4     5   ar
    30     5     6   ar
    31    15     8    1
    32     6     1   ar
    33    29    24   ar
@<TRIPOS>MOLECULE
*****
 31 33 0 0 0
SMALL
GASTEIGER

@<TRIPOS>ATOM
      1 C         140.3858  139.1691  164.2122 C.ar    1  UNL1        0.2204
      2 N         139.5310  137.9959  163.8343 N.ar    1  UNL1       -0.2089
      3 C         139.1359  137.7861  162.4025 C.ar    1  UNL1        0.1402
      4 C         139.5957  138.7495  161.3487 C.ar    1  UNL1        0.1773
      5 C         140.4506  139.9227  161.7267 C.ar    1  UNL1        0.1402
      6 N         140.8456  140.1325  163.1585 N.ar    1  UNL1       -0.2089
      7 C         143.1720  138.5140  165.1111 C.3     1  UNL1        0.0233
      8 C         142.1739  139.0514  166.0934 C.3     1  UNL1        0.0955
      9 C         142.5689  139.2611  167.5252 C.3     1  UNL1        0.1165
     10 N         141.5708  139.7985  168.5075 N.am    1  UNL1       -0.2426
     11 C         141.9658  140.0082  169.9394 C.2     1  UNL1        0.4052
     12 O         143.3589  139.6807  170.3887 O.2     1  UNL1       -0.2262
     13 C         140.1777  140.1260  168.0582 C.3     1  UNL1        0.1182
     14 C         139.7827  139.9162  166.6264 C.3     1  UNL1        0.1152
     15 N         140.7808  139.3789  165.6441 N.pl3   1  UNL1       -0.2764
     16 O         140.9677  140.5456  170.9217 O.3     1  UNL1       -0.4252
     17 C         140.9759  142.0025  171.2784 C.3     1  UNL1        0.3125
     18 C         140.5537  143.0250  170.2653 C.3     1  UNL1        0.4382
     19 F         140.1315  144.0475  169.2523 F       1  UNL1       -0.1663
     20 F         139.1152  142.6884  170.5251 F       1  UNL1       -0.1663
     21 F         141.9922  143.3616  170.0056 F       1  UNL1       -0.1663
     22 O         139.2007  138.5397  159.9170 O.3     1  UNL1       -0.4675
     23 C         140.0625  139.0795  158.8143 C.3     1  UNL1        0.2329
     24 C         140.6423  138.1482  157.7914 C.ar    1  UNL1        0.0339
     25 C         139.7697  137.5869  156.7081 C.ar    1  UNL1        0.0207
     26 C         140.3495  136.6555  155.6851 C.ar    1  UNL1        0.0987
     27 N         141.8019  136.2856  155.7454 N.ar    1  UNL1       -0.2416
     28 C         142.6745  136.8469  156.8287 C.ar    1  UNL1        0.1089
     29 C         142.0947  137.7782  157.8516 C.ar    1  UNL1        0.0871
     30 C         142.9673  138.3395  158.9349 C.1     1  UNL1        0.1018
     31 N         143.8399  138.9008  160.0182 N.1     1  UNL1       -0.1908
@<TRIPOS>BOND
     1     8     7    1
     2     8     9    1
     3     9    10    1
     4    10    11   am
     5    11    12    2
     6    11    16    1
     7    16    17    1
     8    17    18    1
     9    18    19    1
    10    18    20    1
    11    18    21    1
    12    10    13    1
    13    13    14    1
    14    14    15    1
    15    15     1    1
    16     1     2   ar
    17     2     3   ar
    18     3     4   ar
    19     4    22    1
    20    22    23    1
    21    23    24    1
    22    24    25   ar
    23    25    26   ar
    24    26    27   ar
    25    27    28   ar
    26    28    29   ar
    27    29    30    1
    28    30    31    3
    29     4     5   ar
    30     5     6   ar
    31    15     8    1
    32     6     1   ar
    33    29    24   ar
@<TRIPOS>MOLECULE
*****
 31 33 0 0 0
SMALL
GASTEIGER

@<TRIPOS>ATOM
      1 C         141.8571  139.0346  162.3028 C.ar    1  UNL1        0.2204
      2 N         141.3387  139.8781  161.1759 N.ar    1  UNL1       -0.2089
      3 C         141.7756  139.5998  159.7683 C.ar    1  UNL1        0.1402
      4 C         142.7309  138.4779  159.4874 C.ar    1  UNL1        0.1773
      5 C         143.2493  137.6344  160.6142 C.ar    1  UNL1        0.1402
      6 N         142.8123  137.9128  162.0220 N.ar    1  UNL1       -0.2089
      7 C         139.3496  137.7808  163.3708 C.3     1  UNL1        0.0233
      8 C         140.1664  138.6861  164.2445 C.3     1  UNL1        0.0955
      9 C         139.7295  138.9644  165.6522 C.3     1  UNL1        0.1165
     10 N         140.5463  139.8697  166.5259 N.am    1  UNL1       -0.2426
     11 C         140.1094  140.1481  167.9336 C.2     1  UNL1        0.4052
     12 O         138.8557  139.5212  168.4676 O.2     1  UNL1       -0.2262
     13 C         141.8000  140.4967  165.9919 C.3     1  UNL1        0.1182
     14 C         142.2369  140.2183  164.5842 C.3     1  UNL1        0.1152
     15 N         141.4201  139.3130  163.7105 N.pl3   1  UNL1       -0.2764
     16 O         140.9261  141.0534  168.8073 O.3     1  UNL1       -0.4252
     17 C         140.2790  141.7755  169.9517 C.3     1  UNL1        0.3125
     18 C         140.3217  143.2736  170.0136 C.3     1  UNL1        0.4382
     19 F         140.3643  144.7717  170.0755 F       1  UNL1       -0.1663
     20 F         139.1759  143.2662  170.9817 F       1  UNL1       -0.1663
     21 F         141.4674  143.2810  169.0455 F       1  UNL1       -0.1663
     22 O         143.1678  138.1996  158.0797 O.3     1  UNL1       -0.4675
     23 C         142.1636  137.7603  157.0557 C.3     1  UNL1        0.2329
     24 C         142.3159  136.4308  156.3782 C.ar    1  UNL1        0.0339
     25 C         143.6425  135.7307  156.3895 C.ar    1  UNL1        0.0207
     26 C         143.7947  134.4011  155.7120 C.ar    1  UNL1        0.0987
     27 N         142.6203  133.7716  155.0231 N.ar    1  UNL1       -0.2416
     28 C         141.2938  134.4716  155.0117 C.ar    1  UNL1        0.1089
     29 C         141.1415  135.8012  155.6892 C.ar    1  UNL1        0.0871
     30 C         139.8149  136.5012  155.6779 C.1     1  UNL1        0.1018
     31 N         138.4884  137.2013  155.6665 N.1     1  UNL1       -0.1908
@<TRIPOS>BOND
     1     8     7    1
     2     8     9    1
     3     9    10    1
     4    10    11   am
     5    11    12    2
     6    11    16    1
     7    16    17    1
     8    17    18    1
     9    18    19    1
    10    18    20    1
    11    18    21    1
    12    10    13    1
    13    13    14    1
    14    14    15    1
    15    15     1    1
    16     1     2   ar
    17     2     3   ar
    18     3     4   ar
    19     4    22    1
    20    22    23    1
    21    23    24    1
    22    24    25   ar
    23    25    26   ar
    24    26    27   ar
    25    27    28   ar
    26    28    29   ar
    27    29    30    1
    28    30    31    3
    29     4     5   ar
    30     5     6   ar
    31    15     8    1
    32     6     1   ar
    33    29    24   ar
@<TRIPOS>MOLECULE
*****
 31 33 0 0 0
SMALL
GASTEIGER

@<TRIPOS>ATOM
      1 C         142.1216  143.4865  162.6913 C.ar    1  UNL1        0.2204
      2 N         141.4040  142.2707  163.1980 N.ar    1  UNL1       -0.2089
      3 C         141.7540  141.6978  164.5394 C.ar    1  UNL1        0.1402
      4 C         142.8217  142.3408  165.3741 C.ar    1  UNL1        0.1773
      5 C         143.5393  143.5567  164.8674 C.ar    1  UNL1        0.1402
      6 N         143.1892  144.1295  163.5260 N.ar    1  UNL1       -0.2089
      7 C         143.5713  142.5524  160.2366 C.3     1  UNL1        0.0233
      8 C         142.4963  143.5923  160.1226 C.3     1  UNL1        0.0955
      9 C         142.1462  144.1652  158.7813 C.3     1  UNL1        0.1165
     10 N         141.0713  145.2051  158.6673 N.am    1  UNL1       -0.2426
     11 C         140.7212  145.7780  157.3258 C.2     1  UNL1        0.4052
     12 O         141.4460  145.3109  156.0985 O.2     1  UNL1       -0.2262
     13 C         140.3464  145.6722  159.8946 C.3     1  UNL1        0.1182
     14 C         140.6965  145.0994  161.2359 C.3     1  UNL1        0.1152
     15 N         141.7715  144.0594  161.3499 N.pl3   1  UNL1       -0.2764
     16 O         139.6462  146.8179  157.2118 O.3     1  UNL1       -0.4252
     17 C         138.9975  147.0838  155.8858 C.3     1  UNL1        0.3125
     18 C         139.0459  148.4594  155.2895 C.3     1  UNL1        0.4382
     19 F         139.0943  149.8349  154.6933 F       1  UNL1       -0.1663
     20 F         138.5259  149.0343  156.5737 F       1  UNL1       -0.1663
     21 F         139.5659  147.8845  154.0054 F       1  UNL1       -0.1663
     22 O         143.1717  141.7680  166.7155 O.3     1  UNL1       -0.4675
     23 C         142.1672  140.9430  167.4640 C.3     1  UNL1        0.2329
     24 C         141.5507  141.4736  168.7243 C.ar    1  UNL1        0.0339
     25 C         140.8166  142.7816  168.7071 C.ar    1  UNL1        0.0207
     26 C         140.2000  143.3122  169.9675 C.ar    1  UNL1        0.0987
     27 N         140.3176  142.5348  171.2449 N.ar    1  UNL1       -0.2416
     28 C         141.0517  141.2268  171.2620 C.ar    1  UNL1        0.1089
     29 C         141.6682  140.6962  170.0018 C.ar    1  UNL1        0.0871
     30 C         142.4023  139.3883  170.0189 C.1     1  UNL1        0.1018
     31 N         143.1364  138.0803  170.0360 N.1     1  UNL1       -0.1908
@<TRIPOS>BOND
     1     8     7    1
     2     8     9    1
     3     9    10    1
     4    10    11   am
     5    11    12    2
     6    11    16    1
     7    16    17    1
     8    17    18    1
     9    18    19    1
    10    18    20    1
    11    18    21    1
    12    10    13    1
    13    13    14    1
    14    14    15    1
    15    15     1    1
    16     1     2   ar
    17     2     3   ar
    18     3     4   ar
    19     4    22    1
    20    22    23    1
    21    23    24    1
    22    24    25   ar
    23    25    26   ar
    24    26    27   ar
    25    27    28   ar
    26    28    29   ar
    27    29    30    1
    28    30    31    3
    29     4     5   ar
    30     5     6   ar
    31    15     8    1
    32     6     1   ar
    33    29    24   ar
@<TRIPOS>MOLECULE
*****
 31 33 0 0 0
SMALL
GASTEIGER

@<TRIPOS>ATOM
      1 C         139.6284  141.2997  164.0973 C.ar    1  UNL1        0.2204
      2 N         138.5699  142.1523  163.4626 N.ar    1  UNL1       -0.2089
      3 C         138.4892  142.2596  161.9687 C.ar    1  UNL1        0.1402
      4 C         139.4671  141.5143  161.1093 C.ar    1  UNL1        0.1773
      5 C         140.5255  140.6617  161.7439 C.ar    1  UNL1        0.1402
      6 N         140.6062  140.5544  163.2379 N.ar    1  UNL1       -0.2089
      7 C         138.4171  138.9402  165.4993 C.3     1  UNL1        0.0233
      8 C         139.1034  140.0127  166.2923 C.3     1  UNL1        0.0955
      9 C         139.1841  139.9055  167.7862 C.3     1  UNL1        0.1165
     10 N         139.8704  140.9780  168.5792 N.am    1  UNL1       -0.2426
     11 C         139.9510  140.8707  170.0732 C.2     1  UNL1        0.4052
     12 O         139.3454  139.6910  170.7742 O.2     1  UNL1       -0.2262
     13 C         140.4760  142.1577  167.8782 C.3     1  UNL1        0.1182
     14 C         140.3953  142.2649  166.3843 C.3     1  UNL1        0.1152
     15 N         139.7090  141.1924  165.5913 N.pl3   1  UNL1       -0.2764
     16 O         140.6373  141.9431  170.8662 O.3     1  UNL1       -0.4252
     17 C         142.0934  141.8123  171.2017 C.3     1  UNL1        0.3125
     18 C         143.1334  142.1997  170.1926 C.3     1  UNL1        0.4382
     19 F         144.1733  142.5871  169.1834 F       1  UNL1       -0.1663
     20 F         143.2693  140.7636  169.7813 F       1  UNL1       -0.1663
     21 F         142.9975  143.6358  170.6038 F       1  UNL1       -0.1663
     22 O         139.3864  141.6216  159.6153 O.3     1  UNL1       -0.4675
     23 C         139.0378  142.9327  158.9753 C.3     1  UNL1        0.2329
     24 C         140.0807  143.6968  158.2148 C.ar    1  UNL1        0.0339
     25 C         140.5854  143.1743  156.9025 C.ar    1  UNL1        0.0207
     26 C         141.6284  143.9385  156.1420 C.ar    1  UNL1        0.0987
     27 N         142.1667  145.2252  156.6939 N.ar    1  UNL1       -0.2416
     28 C         141.6620  145.7477  158.0063 C.ar    1  UNL1        0.1089
     29 C         140.6191  144.9836  158.7667 C.ar    1  UNL1        0.0871
     30 C         140.1144  145.5061  160.0791 C.1     1  UNL1        0.1018
     31 N         139.6098  146.0286  161.3915 N.1     1  UNL1       -0.1908
@<TRIPOS>BOND
     1     8     7    1
     2     8     9    1
     3     9    10    1
     4    10    11   am
     5    11    12    2
     6    11    16    1
     7    16    17    1
     8    17    18    1
     9    18    19    1
    10    18    20    1
    11    18    21    1
    12    10    13    1
    13    13    14    1
    14    14    15    1
    15    15     1    1
    16     1     2   ar
    17     2     3   ar
    18     3     4   ar
    19     4    22    1
    20    22    23    1
    21    23    24    1
    22    24    25   ar
    23    25    26   ar
    24    26    27   ar
    25    27    28   ar
    26    28    29   ar
    27    29    30    1
    28    30    31    3
    29     4     5   ar
    30     5     6   ar
    31    15     8    1
    32     6     1   ar
    33    29    24   ar
@<TRIPOS>MOLECULE
*****
 31 33 0 0 0
SMALL
GASTEIGER

@<TRIPOS>ATOM
      1 C         140.0102  138.7924  157.5038 C.ar    1  UNL1        0.2204
      2 N         141.0251  139.4164  156.5924 N.ar    1  UNL1       -0.2089
      3 C         141.3402  138.7783  155.2720 C.ar    1  UNL1        0.1402
      4 C         140.6403  137.5161  154.8629 C.ar    1  UNL1        0.1773
      5 C         139.6254  136.8921  155.7743 C.ar    1  UNL1        0.1402
      6 N         139.3103  137.5303  157.0947 N.ar    1  UNL1       -0.2089
      7 C         141.7239  138.2127  159.8970 C.3     1  UNL1        0.0233
      8 C         140.5519  139.1407  160.0208 C.3     1  UNL1        0.0955
      9 C         140.2368  139.7788  161.3411 C.3     1  UNL1        0.1165
     10 N         139.0648  140.7068  161.4650 N.am    1  UNL1       -0.2426
     11 C         138.7497  141.3450  162.7854 C.2     1  UNL1        0.4052
     12 O         139.6066  141.0552  163.9820 O.2     1  UNL1       -0.2262
     13 C         138.2080  140.9967  160.2684 C.3     1  UNL1        0.1182
     14 C         138.5231  140.3585  158.9481 C.3     1  UNL1        0.1152
     15 N         139.6951  139.4305  158.8242 N.pl3   1  UNL1       -0.2764
     16 O         137.5778  142.2730  162.9092 O.3     1  UNL1       -0.4252
     17 C         137.7903  143.7576  162.8799 C.3     1  UNL1        0.3125
     18 C         138.2562  144.4731  164.1132 C.3     1  UNL1        0.4382
     19 F         138.7221  145.1886  165.3465 F       1  UNL1       -0.1663
     20 F         137.4289  143.5520  164.9601 F       1  UNL1       -0.1663
     21 F         139.0835  145.3941  163.2663 F       1  UNL1       -0.1663
     22 O         140.9555  136.8780  153.5425 O.3     1  UNL1       -0.4675
     23 C         142.0715  135.8812  153.4385 C.3     1  UNL1        0.2329
     24 C         142.2891  134.8817  154.5356 C.ar    1  UNL1        0.0339
     25 C         141.4734  133.6235  154.5764 C.ar    1  UNL1        0.0207
     26 C         141.6910  132.6239  155.6736 C.ar    1  UNL1        0.0987
     27 N         142.7241  132.8826  156.7298 N.ar    1  UNL1       -0.2416
     28 C         143.5398  134.1408  156.6889 C.ar    1  UNL1        0.1089
     29 C         143.3223  135.1403  155.5919 C.ar    1  UNL1        0.0871
     30 C         144.1379  136.3985  155.5511 C.1     1  UNL1        0.1018
     31 N         144.9536  137.6567  155.5102 N.1     1  UNL1       -0.1908
@<TRIPOS>BOND
     1     8     7    1
     2     8     9    1
     3     9    10    1
     4    10    11   am
     5    11    12    2
     6    11    16    1
     7    16    17    1
     8    17    18    1
     9    18    19    1
    10    18    20    1
    11    18    21    1
    12    10    13    1
    13    13    14    1
    14    14    15    1
    15    15     1    1
    16     1     2   ar
    17     2     3   ar
    18     3     4   ar
    19     4    22    1
    20    22    23    1
    21    23    24    1
    22    24    25   ar
    23    25    26   ar
    24    26    27   ar
    25    27    28   ar
    26    28    29   ar
    27    29    30    1
    28    30    31    3
    29     4     5   ar
    30     5     6   ar
    31    15     8    1
    32     6     1   ar
    33    29    24   ar
@<TRIPOS>MOLECULE
*****
 31 33 0 0 0
SMALL
GASTEIGER

@<TRIPOS>ATOM
      1 C         139.5656  139.6289  162.8264 C.ar    1  UNL1        0.2204
      2 N         140.7161  139.0681  162.0441 N.ar    1  UNL1       -0.2089
      3 C         140.5558  138.7725  160.5823 C.ar    1  UNL1        0.1402
      4 C         139.2451  139.0376  159.9027 C.ar    1  UNL1        0.1773
      5 C         138.0946  139.5984  160.6850 C.ar    1  UNL1        0.1402
      6 N         138.2549  139.8941  162.1469 N.ar    1  UNL1       -0.2089
      7 C         138.7111  137.6044  164.8688 C.3     1  UNL1        0.0233
      8 C         139.2987  138.9123  165.3094 C.3     1  UNL1        0.0955
      9 C         139.4590  139.2080  166.7712 C.3     1  UNL1        0.1165
     10 N         140.0465  140.5159  167.2118 N.am    1  UNL1       -0.2426
     11 C         140.2068  140.8116  168.6737 C.2     1  UNL1        0.4052
     12 O         139.7796  139.7993  169.6948 O.2     1  UNL1       -0.2262
     13 C         140.4738  141.5282  166.1906 C.3     1  UNL1        0.1182
     14 C         140.3135  141.2325  164.7289 C.3     1  UNL1        0.1152
     15 N         139.7259  139.9246  164.2882 N.pl3   1  UNL1       -0.2764
     16 O         140.7944  142.1195  169.1143 O.3     1  UNL1       -0.4252
     17 C         141.7554  142.1602  170.2653 C.3     1  UNL1        0.3125
     18 C         143.2160  142.3927  170.0150 C.3     1  UNL1        0.4382
     19 F         144.6765  142.6253  169.7648 F       1  UNL1       -0.1663
     20 F         143.1187  143.7292  170.6891 F       1  UNL1       -0.1663
     21 F         143.3132  141.0562  169.3410 F       1  UNL1       -0.1663
     22 O         139.0848  138.7420  158.4409 O.3     1  UNL1       -0.4675
     23 C         140.2486  138.9106  157.5097 C.3     1  UNL1        0.2329
     24 C         140.9752  137.7050  156.9914 C.ar    1  UNL1        0.0339
     25 C         142.3480  137.3801  157.5012 C.ar    1  UNL1        0.0207
     26 C         143.0746  136.1745  156.9829 C.ar    1  UNL1        0.0987
     27 N         142.4285  135.2939  155.9548 N.ar    1  UNL1       -0.2416
     28 C         141.0557  135.6188  155.4450 C.ar    1  UNL1        0.1089
     29 C         140.3291  136.8244  155.9632 C.ar    1  UNL1        0.0871
     30 C         138.9563  137.1493  155.4534 C.1     1  UNL1        0.1018
     31 N         137.5835  137.4743  154.9436 N.1     1  UNL1       -0.1908
@<TRIPOS>BOND
     1     8     7    1
     2     8     9    1
     3     9    10    1
     4    10    11   am
     5    11    12    2
     6    11    16    1
     7    16    17    1
     8    17    18    1
     9    18    19    1
    10    18    20    1
    11    18    21    1
    12    10    13    1
    13    13    14    1
    14    14    15    1
    15    15     1    1
    16     1     2   ar
    17     2     3   ar
    18     3     4   ar
    19     4    22    1
    20    22    23    1
    21    23    24    1
    22    24    25   ar
    23    25    26   ar
    24    26    27   ar
    25    27    28   ar
    26    28    29   ar
    27    29    30    1
    28    30    31    3
    29     4     5   ar
    30     5     6   ar
    31    15     8    1
    32     6     1   ar
    33    29    24   ar
@<TRIPOS>MOLECULE
*****
 31 33 0 0 0
SMALL
GASTEIGER

@<TRIPOS>ATOM
      1 C         142.4645  139.6042  164.1124 C.ar    1  UNL1        0.2204
      2 N         142.5548  138.2517  163.4700 N.ar    1  UNL1       -0.2089
      3 C         143.1666  138.1076  162.1080 C.ar    1  UNL1        0.1402
      4 C         143.6880  139.3161  161.3884 C.ar    1  UNL1        0.1773
      5 C         143.5977  140.6686  162.0308 C.ar    1  UNL1        0.1402
      6 N         142.9859  140.8126  163.3928 N.ar    1  UNL1       -0.2089
      7 C         139.5033  139.2810  164.4686 C.3     1  UNL1        0.0233
      8 C         140.3722  139.5867  165.6525 C.3     1  UNL1        0.0955
      9 C         139.7605  139.7307  167.0145 C.3     1  UNL1        0.1165
     10 N         140.6294  140.0363  168.1984 N.am    1  UNL1       -0.2426
     11 C         140.0177  140.1803  169.5604 C.2     1  UNL1        0.4052
     12 O         138.5371  140.0188  169.7385 O.2     1  UNL1       -0.2262
     13 C         142.1100  140.1979  168.0203 C.3     1  UNL1        0.1182
     14 C         142.7217  140.0538  166.6583 C.3     1  UNL1        0.1152
     15 N         141.8528  139.7482  165.4744 N.pl3   1  UNL1       -0.2764
     16 O         140.8865  140.4860  170.7443 O.3     1  UNL1       -0.4252
     17 C         141.1489  141.9104  171.1343 C.3     1  UNL1        0.3125
     18 C         140.6693  143.0287  170.2572 C.3     1  UNL1        0.4382
     19 F         140.1896  144.1470  169.3801 F       1  UNL1       -0.1663
     20 F         142.0364  143.1387  169.6498 F       1  UNL1       -0.1663
     21 F         139.3021  142.9186  170.8646 F       1  UNL1       -0.1663
     22 O         144.2997  139.1720  160.0264 O.3     1  UNL1       -0.4675
     23 C         143.6011  139.7397  158.8266 C.3     1  UNL1        0.2329
     24 C         142.1026  139.7893  158.7849 C.ar    1  UNL1        0.0339
     25 C         141.3152  138.5257  158.6015 C.ar    1  UNL1        0.0207
     26 C         139.8165  138.5753  158.5599 C.ar    1  UNL1        0.0987
     27 N         139.1053  139.8883  158.7016 N.ar    1  UNL1       -0.2416
     28 C         139.8927  141.1518  158.8849 C.ar    1  UNL1        0.1089
     29 C         141.3913  141.1023  158.9266 C.ar    1  UNL1        0.0871
     30 C         142.1786  142.3658  159.1100 C.1     1  UNL1        0.1018
     31 N         142.9660  143.6293  159.2933 N.1     1  UNL1       -0.1908
@<TRIPOS>BOND
     1     8     7    1
     2     8     9    1
     3     9    10    1
     4    10    11   am
     5    11    12    2
     6    11    16    1
     7    16    17    1
     8    17    18    1
     9    18    19    1
    10    18    20    1
    11    18    21    1
    12    10    13    1
    13    13    14    1
    14    14    15    1
    15    15     1    1
    16     1     2   ar
    17     2     3   ar
    18     3     4   ar
    19     4    22    1
    20    22    23    1
    21    23    24    1
    22    24    25   ar
    23    25    26   ar
    24    26    27   ar
    25    27    28   ar
    26    28    29   ar
    27    29    30    1
    28    30    31    3
    29     4     5   ar
    30     5     6   ar
    31    15     8    1
    32     6     1   ar
    33    29    24   ar
@<TRIPOS>MOLECULE
*****
 31 33 0 0 0
SMALL
GASTEIGER

@<TRIPOS>ATOM
      1 C         139.1439  139.8843  163.6965 C.ar    1  UNL1        0.2204
      2 N         138.5720  138.6270  163.1117 N.ar    1  UNL1       -0.2089
      3 C         137.9460  138.6508  161.7489 C.ar    1  UNL1        0.1402
      4 C         137.8917  139.9320  160.9707 C.ar    1  UNL1        0.1773
      5 C         138.4636  141.1894  161.5554 C.ar    1  UNL1        0.1402
      6 N         139.0897  141.1656  162.9184 N.ar    1  UNL1       -0.2089
      7 C         142.0281  139.1205  164.0091 C.3     1  UNL1        0.0233
      8 C         141.2121  139.4785  165.2157 C.3     1  UNL1        0.0955
      9 C         141.8381  139.4547  166.5786 C.3     1  UNL1        0.1165
     10 N         141.0220  139.8127  167.7852 N.am    1  UNL1       -0.2426
     11 C         141.6481  139.7889  169.1481 C.2     1  UNL1        0.4052
     12 O         143.0902  139.4069  169.3044 O.2     1  UNL1       -0.2262
     13 C         139.5799  140.1947  167.6289 C.3     1  UNL1        0.1182
     14 C         138.9539  140.2185  166.2660 C.3     1  UNL1        0.1152
     15 N         139.7700  139.8605  165.0594 N.pl3   1  UNL1       -0.2764
     16 O         140.8320  140.1469  170.3547 O.3     1  UNL1       -0.4252
     17 C         141.0198  141.4786  171.0189 C.3     1  UNL1        0.3125
     18 C         140.6570  142.7382  170.2897 C.3     1  UNL1        0.4382
     19 F         140.2941  143.9979  169.5605 F       1  UNL1       -0.1663
     20 F         142.1032  143.1349  170.2553 F       1  UNL1       -0.1663
     21 F         139.2108  142.3416  170.3241 F       1  UNL1       -0.1663
     22 O         137.2657  139.9559  159.6078 O.3     1  UNL1       -0.4675
     23 C         138.0868  140.3372  158.4118 C.3     1  UNL1        0.2329
     24 C         137.5188  141.2613  157.3759 C.ar    1  UNL1        0.0339
     25 C         136.3993  140.7988  156.4911 C.ar    1  UNL1        0.0207
     26 C         135.8313  141.7231  155.4551 C.ar    1  UNL1        0.0987
     27 N         136.3828  143.1097  155.3039 N.ar    1  UNL1       -0.2416
     28 C         137.5023  143.5722  156.1886 C.ar    1  UNL1        0.1089
     29 C         138.0703  142.6481  157.2246 C.ar    1  UNL1        0.0871
     30 C         139.1899  143.1106  158.1093 C.1     1  UNL1        0.1018
     31 N         140.3094  143.5731  158.9940 N.1     1  UNL1       -0.1908
@<TRIPOS>BOND
     1     8     7    1
     2     8     9    1
     3     9    10    1
     4    10    11   am
     5    11    12    2
     6    11    16    1
     7    16    17    1
     8    17    18    1
     9    18    19    1
    10    18    20    1
    11    18    21    1
    12    10    13    1
    13    13    14    1
    14    14    15    1
    15    15     1    1
    16     1     2   ar
    17     2     3   ar
    18     3     4   ar
    19     4    22    1
    20    22    23    1
    21    23    24    1
    22    24    25   ar
    23    25    26   ar
    24    26    27   ar
    25    27    28   ar
    26    28    29   ar
    27    29    30    1
    28    30    31    3
    29     4     5   ar
    30     5     6   ar
    31    15     8    1
    32     6     1   ar
    33    29    24   ar
