@<TRIPOS>MOLECULE
*****
 33 37 0 0 0
SMALL
GASTEIGER

@<TRIPOS>ATOM
      1 N         140.2042  139.0400  161.4667 N.3     1  UNL1       -0.2695
      2 C         140.2822  138.4373  162.8381 C.3     1  UNL1        0.0939
      3 C         141.5313  138.5902  163.6546 C.3     1  UNL1        0.1107
      4 N         142.7023  139.3457  163.0996 N.am    1  UNL1       -0.2764
      5 C         143.9513  139.4985  163.9160 C.2     1  UNL1        0.2301
      6 O         145.1224  140.2540  163.3611 O.2     1  UNL1       -0.2745
      7 C         142.6243  139.9483  161.7282 C.3     1  UNL1        0.1107
      8 C         141.3753  139.7955  160.9118 C.3     1  UNL1        0.0939
      9 C         138.9552  138.8872  160.6503 C.3     1  UNL1        0.0769
     10 C         137.8483  139.8914  160.7778 C.3     1  UNL1        0.0437
     11 O         138.2610  145.0857  165.6236 O.2     1  UNL1       -0.2449
     12 C         138.6104  144.7225  164.2107 C.2     1  UNL1        0.3413
     13 O         139.3173  145.6028  163.2232 O.3     1  UNL1       -0.4404
     14 C         139.4579  144.8395  161.9395 C.3     1  UNL1        0.2356
     15 C         138.8379  143.4875  162.1338 C.ar    1  UNL1        0.0272
     16 C         138.6826  142.3130  161.2139 C.ar    1  UNL1       -0.0047
     17 C         138.0036  141.0661  161.6977 C.ar    1  UNL1       -0.0210
     18 C         137.4798  140.9937  163.1014 C.ar    1  UNL1       -0.0040
     19 C         137.6350  142.1683  164.0213 C.ar    1  UNL1        0.0059
     20 C         138.3141  143.4152  163.5375 C.ar    1  UNL1        0.0751
     21 C         144.0293  138.8958  165.2874 C.3     1  UNL1        0.1116
     22 C         143.3313  139.5578  166.4384 C.ar    1  UNL1       -0.0108
     23 C         142.9292  140.9998  166.3426 C.ar    1  UNL1       -0.0021
     24 C         142.2312  141.6617  167.4935 C.ar    1  UNL1        0.0212
     25 C         141.9352  140.8818  168.7401 C.ar    1  UNL1        0.1136
     26 C         142.3373  139.4398  168.8358 C.ar    1  UNL1        0.1575
     27 F         142.0413  138.6599  170.0825 F       1  UNL1       -0.2026
     28 C         143.0353  138.7779  167.6849 C.ar    1  UNL1        0.0274
     29 N         141.2372  141.5438  169.8910 N.ar    1  UNL1       -0.1864
     30 C         140.0532  142.4597  169.7952 C.ar    1  UNL1        0.2259
     31 N         139.6849  142.8880  171.1848 N.ar    1  UNL1       -0.1045
     32 N         140.6413  142.2368  172.1394 N.ar    1  UNL1       -0.0222
     33 N         141.6007  141.4060  171.3398 N.ar    1  UNL1       -0.0384
@<TRIPOS>BOND
     1    11    12    2
     2    12    13    1
     3    13    14    1
     4    14    15    1
     5    15    16   ar
     6    16    17   ar
     7    17    10    1
     8    10     9    1
     9     9     1    1
    10     1     2    1
    11     2     3    1
    12     3     4    1
    13     4     5   am
    14     5     6    2
    15     5    21    1
    16    21    22    1
    17    22    23   ar
    18    23    24   ar
    19    24    25   ar
    20    25    29    1
    21    29    30   ar
    22    30    31   ar
    23    31    32   ar
    24    32    33   ar
    25    25    26   ar
    26    26    27    1
    27    26    28   ar
    28     4     7    1
    29     7     8    1
    30    17    18   ar
    31    18    19   ar
    32    19    20   ar
    33    20    12    1
    34    20    15   ar
    35     8     1    1
    36    28    22   ar
    37    33    29   ar
@<TRIPOS>MOLECULE
*****
 33 37 0 0 0
SMALL
GASTEIGER

@<TRIPOS>ATOM
      1 N         142.8883  141.4194  161.0916 N.3     1  UNL1       -0.2695
      2 C         143.4356  141.3765  162.4875 C.3     1  UNL1        0.0939
      3 C         143.0892  140.2326  163.3941 C.3     1  UNL1        0.1107
      4 N         142.1956  139.1318  162.9047 N.am    1  UNL1       -0.2764
      5 C         141.8493  137.9880  163.8113 C.2     1  UNL1        0.2301
      6 O         140.9557  136.8871  163.3219 O.2     1  UNL1       -0.2745
      7 C         141.6483  139.1747  161.5088 C.3     1  UNL1        0.1107
      8 C         141.9947  140.3184  160.6022 C.3     1  UNL1        0.0939
      9 C         143.2346  142.5631  160.1851 C.3     1  UNL1        0.0769
     10 C         142.4279  143.8269  160.2303 C.3     1  UNL1        0.0437
     11 O         138.6303  145.4089  166.0361 O.2     1  UNL1       -0.2449
     12 C         138.5643  144.7365  164.6969 C.2     1  UNL1        0.3413
     13 O         137.3624  144.0585  164.1090 O.3     1  UNL1       -0.4404
     14 C         137.7440  143.5270  162.7592 C.3     1  UNL1        0.2356
     15 C         139.1818  143.8766  162.5129 C.ar    1  UNL1        0.0272
     16 C         140.0948  143.6109  161.3529 C.ar    1  UNL1       -0.0047
     17 C         141.5148  144.0926  161.3904 C.ar    1  UNL1       -0.0210
     18 C         142.0218  144.8401  162.5880 C.ar    1  UNL1       -0.0040
     19 C         141.1087  145.1059  163.7480 C.ar    1  UNL1        0.0059
     20 C         139.6887  144.6241  163.7105 C.ar    1  UNL1        0.0751
     21 C         142.3966  137.9452  165.2072 C.3     1  UNL1        0.1116
     22 C         141.9085  138.9231  166.2345 C.ar    1  UNL1       -0.0108
     23 C         140.5097  139.4590  166.1548 C.ar    1  UNL1       -0.0021
     24 C         140.0216  140.4370  167.1821 C.ar    1  UNL1        0.0212
     25 C         140.9321  140.8790  168.2891 C.ar    1  UNL1        0.1136
     26 C         142.3308  140.3430  168.3688 C.ar    1  UNL1        0.1575
     27 F         143.2414  140.7851  169.4759 F       1  UNL1       -0.2026
     28 C         142.8190  139.3651  167.3415 C.ar    1  UNL1        0.0274
     29 N         140.4440  141.8569  169.3164 N.ar    1  UNL1       -0.1864
     30 C         140.4885  143.3519  169.2019 C.ar    1  UNL1        0.2259
     31 N         139.8977  143.9305  170.4533 N.ar    1  UNL1       -0.1045
     32 N         139.4879  142.7931  171.3413 N.ar    1  UNL1       -0.0222
     33 N         139.8256  141.5116  170.6387 N.ar    1  UNL1       -0.0384
@<TRIPOS>BOND
     1    11    12    2
     2    12    13    1
     3    13    14    1
     4    14    15    1
     5    15    16   ar
     6    16    17   ar
     7    17    10    1
     8    10     9    1
     9     9     1    1
    10     1     2    1
    11     2     3    1
    12     3     4    1
    13     4     5   am
    14     5     6    2
    15     5    21    1
    16    21    22    1
    17    22    23   ar
    18    23    24   ar
    19    24    25   ar
    20    25    29    1
    21    29    30   ar
    22    30    31   ar
    23    31    32   ar
    24    32    33   ar
    25    25    26   ar
    26    26    27    1
    27    26    28   ar
    28     4     7    1
    29     7     8    1
    30    17    18   ar
    31    18    19   ar
    32    19    20   ar
    33    20    12    1
    34    20    15   ar
    35     8     1    1
    36    28    22   ar
    37    33    29   ar
@<TRIPOS>MOLECULE
*****
 33 37 0 0 0
SMALL
GASTEIGER

@<TRIPOS>ATOM
      1 N         140.0759  138.3255  161.7621 N.3     1  UNL1       -0.2695
      2 C         140.2624  137.8875  163.1845 C.3     1  UNL1        0.0939
      3 C         141.5271  138.2298  163.9150 C.3     1  UNL1        0.1107
      4 N         142.6052  139.0101  163.2229 N.am    1  UNL1       -0.2764
      5 C         143.8698  139.3523  163.9534 C.2     1  UNL1        0.2301
      6 O         144.9480  140.1326  163.2613 O.2     1  UNL1       -0.2745
      7 C         142.4187  139.4480  161.8005 C.3     1  UNL1        0.1107
      8 C         141.1541  139.1057  161.0700 C.3     1  UNL1        0.0939
      9 C         138.8113  137.9832  161.0316 C.3     1  UNL1        0.0769
     10 C         137.6376  138.9157  161.0865 C.3     1  UNL1        0.0437
     11 O         138.7703  145.8626  162.1302 O.2     1  UNL1       -0.2449
     12 C         138.3717  144.5885  162.8142 C.2     1  UNL1        0.3413
     13 O         138.0258  144.4381  164.2660 O.3     1  UNL1       -0.4404
     14 C         137.6894  142.9978  164.5155 C.3     1  UNL1        0.2356
     15 C         137.8275  142.2580  163.2179 C.ar    1  UNL1        0.0272
     16 C         137.6236  140.8162  162.8579 C.ar    1  UNL1       -0.0047
     17 C         137.8415  140.3575  161.4465 C.ar    1  UNL1       -0.0210
     18 C         138.2632  141.3407  160.3951 C.ar    1  UNL1       -0.0040
     19 C         138.4670  142.7825  160.7550 C.ar    1  UNL1        0.0059
     20 C         138.2491  143.2411  162.1664 C.ar    1  UNL1        0.0751
     21 C         144.0563  138.9144  165.3758 C.3     1  UNL1        0.1116
     22 C         143.3089  139.6056  166.4775 C.ar    1  UNL1       -0.0108
     23 C         142.8866  141.0357  166.3149 C.ar    1  UNL1       -0.0021
     24 C         142.1392  141.7269  167.4165 C.ar    1  UNL1        0.0212
     25 C         141.8141  140.9880  168.6807 C.ar    1  UNL1        0.1136
     26 C         142.2364  139.5579  168.8433 C.ar    1  UNL1        0.1575
     27 F         141.9113  138.8190  170.1076 F       1  UNL1       -0.2026
     28 C         142.9838  138.8667  167.7417 C.ar    1  UNL1        0.0274
     29 N         141.0667  141.6792  169.7824 N.ar    1  UNL1       -0.1864
     30 C         141.2369  141.4338  171.2524 C.ar    1  UNL1        0.2259
     31 N         140.2932  142.3401  171.9859 N.ar    1  UNL1       -0.1045
     32 N         139.5397  143.1456  170.9693 N.ar    1  UNL1       -0.0222
     33 N         140.0178  142.7372  169.6075 N.ar    1  UNL1       -0.0384
@<TRIPOS>BOND
     1    11    12    2
     2    12    13    1
     3    13    14    1
     4    14    15    1
     5    15    16   ar
     6    16    17   ar
     7    17    10    1
     8    10     9    1
     9     9     1    1
    10     1     2    1
    11     2     3    1
    12     3     4    1
    13     4     5   am
    14     5     6    2
    15     5    21    1
    16    21    22    1
    17    22    23   ar
    18    23    24   ar
    19    24    25   ar
    20    25    29    1
    21    29    30   ar
    22    30    31   ar
    23    31    32   ar
    24    32    33   ar
    25    25    26   ar
    26    26    27    1
    27    26    28   ar
    28     4     7    1
    29     7     8    1
    30    17    18   ar
    31    18    19   ar
    32    19    20   ar
    33    20    12    1
    34    20    15   ar
    35     8     1    1
    36    28    22   ar
    37    33    29   ar
@<TRIPOS>MOLECULE
*****
 33 37 0 0 0
SMALL
GASTEIGER

@<TRIPOS>ATOM
      1 N         139.9902  141.9075  160.7349 N.3     1  UNL1       -0.2695
      2 C         139.0253  141.7849  161.8768 C.3     1  UNL1        0.0939
      3 C         138.9731  140.5205  162.6822 C.3     1  UNL1        0.1107
      4 N         139.8856  139.3786  162.3456 N.am    1  UNL1       -0.2764
      5 C         139.8334  138.1143  163.1509 C.2     1  UNL1        0.2301
      6 O         140.7460  136.9723  162.8143 O.2     1  UNL1       -0.2745
      7 C         140.8505  139.5012  161.2036 C.3     1  UNL1        0.1107
      8 C         140.9028  140.7655  160.3983 C.3     1  UNL1        0.0939
      9 C         140.0425  143.1718  159.9296 C.3     1  UNL1        0.0769
     10 C         141.0952  144.2010  160.2168 C.3     1  UNL1        0.0437
     11 O         144.9283  143.9578  166.2069 O.2     1  UNL1       -0.2449
     12 C         144.8067  143.3812  164.8275 C.2     1  UNL1        0.3413
     13 O         145.7029  142.3402  164.2248 O.3     1  UNL1       -0.4404
     14 C         145.2175  142.0601  162.8334 C.3     1  UNL1        0.2356
     15 C         144.0214  142.9279  162.5761 C.ar    1  UNL1        0.0272
     16 C         143.1307  143.0801  161.3789 C.ar    1  UNL1       -0.0047
     17 C         141.9860  144.0488  161.4141 C.ar    1  UNL1       -0.0210
     18 C         141.7321  144.8653  162.6465 C.ar    1  UNL1       -0.0040
     19 C         142.6228  144.7131  163.8437 C.ar    1  UNL1        0.0059
     20 C         143.7675  143.7444  163.8086 C.ar    1  UNL1        0.0751
     21 C         138.8685  137.9917  164.2928 C.3     1  UNL1        0.1116
     22 C         139.1631  138.6672  165.5994 C.ar    1  UNL1       -0.0108
     23 C         138.0847  138.8035  166.6331 C.ar    1  UNL1       -0.0021
     24 C         138.3793  139.4789  167.9396 C.ar    1  UNL1        0.0212
     25 C         139.7522  140.0180  168.2124 C.ar    1  UNL1        0.1136
     26 C         140.8305  139.8817  167.1787 C.ar    1  UNL1        0.1575
     27 F         142.2035  140.4209  167.4516 F       1  UNL1       -0.2026
     28 C         140.5360  139.2063  165.8722 C.ar    1  UNL1        0.0274
     29 N         140.0468  140.6934  169.5190 N.ar    1  UNL1       -0.1864
     30 C         139.8789  142.1546  169.8138 C.ar    1  UNL1        0.2259
     31 N         140.2893  142.3904  171.2371 N.ar    1  UNL1       -0.1045
     32 N         140.7109  141.0750  171.8221 N.ar    1  UNL1       -0.0222
     33 N         140.5610  140.0263  170.7602 N.ar    1  UNL1       -0.0384
@<TRIPOS>BOND
     1    11    12    2
     2    12    13    1
     3    13    14    1
     4    14    15    1
     5    15    16   ar
     6    16    17   ar
     7    17    10    1
     8    10     9    1
     9     9     1    1
    10     1     2    1
    11     2     3    1
    12     3     4    1
    13     4     5   am
    14     5     6    2
    15     5    21    1
    16    21    22    1
    17    22    23   ar
    18    23    24   ar
    19    24    25   ar
    20    25    29    1
    21    29    30   ar
    22    30    31   ar
    23    31    32   ar
    24    32    33   ar
    25    25    26   ar
    26    26    27    1
    27    26    28   ar
    28     4     7    1
    29     7     8    1
    30    17    18   ar
    31    18    19   ar
    32    19    20   ar
    33    20    12    1
    34    20    15   ar
    35     8     1    1
    36    28    22   ar
    37    33    29   ar
@<TRIPOS>MOLECULE
*****
 33 37 0 0 0
SMALL
GASTEIGER

@<TRIPOS>ATOM
      1 N         142.2403  142.2803  159.7619 N.3     1  UNL1       -0.2695
      2 C         141.8878  141.0686  160.5727 C.3     1  UNL1        0.0939
      3 C         142.7931  140.6182  161.6807 C.3     1  UNL1        0.1107
      4 N         144.0509  141.3795  161.9779 N.am    1  UNL1       -0.2764
      5 C         144.9561  140.9291  163.0859 C.2     1  UNL1        0.2301
      6 O         146.2139  141.6905  163.3831 O.2     1  UNL1       -0.2745
      7 C         144.4034  142.5912  161.1671 C.3     1  UNL1        0.1107
      8 C         143.4982  143.0416  160.0591 C.3     1  UNL1        0.0939
      9 C         141.3351  142.7307  158.6539 C.3     1  UNL1        0.0769
     10 C         140.1834  143.6445  158.9510 C.3     1  UNL1        0.0437
     11 O         138.4401  145.1847  165.6757 O.2     1  UNL1       -0.2449
     12 C         138.2240  144.1954  164.5690 C.2     1  UNL1        0.3413
     13 O         137.3593  142.9716  164.6368 O.3     1  UNL1       -0.4404
     14 C         137.4356  142.2761  163.3100 C.3     1  UNL1        0.2356
     15 C         138.3474  143.0701  162.4222 C.ar    1  UNL1        0.0272
     16 C         138.7970  142.8661  161.0058 C.ar    1  UNL1       -0.0047
     17 C         139.7338  143.8484  160.3675 C.ar    1  UNL1       -0.0210
     18 C         140.2211  145.0346  161.1456 C.ar    1  UNL1       -0.0040
     19 C         139.7715  145.2385  162.5620 C.ar    1  UNL1        0.0059
     20 C         138.8347  144.2563  163.2003 C.ar    1  UNL1        0.0751
     21 C         144.6035  139.7174  163.8967 C.3     1  UNL1        0.1116
     22 C         143.7926  139.8637  165.1502 C.ar    1  UNL1       -0.0108
     23 C         143.6556  138.7061  166.0942 C.ar    1  UNL1       -0.0021
     24 C         142.8447  138.8523  167.3475 C.ar    1  UNL1        0.0212
     25 C         142.1708  140.1561  167.6569 C.ar    1  UNL1        0.1136
     26 C         142.3078  141.3138  166.7130 C.ar    1  UNL1        0.1575
     27 F         141.6338  142.6177  167.0224 F       1  UNL1       -0.2026
     28 C         143.1187  141.1675  165.4596 C.ar    1  UNL1        0.0274
     29 N         141.3599  140.3024  168.9104 N.ar    1  UNL1       -0.1864
     30 C         141.7686  141.0543  170.1422 C.ar    1  UNL1        0.2259
     31 N         140.6592  140.9391  171.1452 N.ar    1  UNL1       -0.1045
     32 N         139.5647  140.1158  170.5331 N.ar    1  UNL1       -0.0222
     33 N         139.9978  139.7224  169.1520 N.ar    1  UNL1       -0.0384
@<TRIPOS>BOND
     1    11    12    2
     2    12    13    1
     3    13    14    1
     4    14    15    1
     5    15    16   ar
     6    16    17   ar
     7    17    10    1
     8    10     9    1
     9     9     1    1
    10     1     2    1
    11     2     3    1
    12     3     4    1
    13     4     5   am
    14     5     6    2
    15     5    21    1
    16    21    22    1
    17    22    23   ar
    18    23    24   ar
    19    24    25   ar
    20    25    29    1
    21    29    30   ar
    22    30    31   ar
    23    31    32   ar
    24    32    33   ar
    25    25    26   ar
    26    26    27    1
    27    26    28   ar
    28     4     7    1
    29     7     8    1
    30    17    18   ar
    31    18    19   ar
    32    19    20   ar
    33    20    12    1
    34    20    15   ar
    35     8     1    1
    36    28    22   ar
    37    33    29   ar
@<TRIPOS>MOLECULE
*****
 33 37 0 0 0
SMALL
GASTEIGER

@<TRIPOS>ATOM
      1 N         141.5774  140.0544  160.8115 N.3     1  UNL1       -0.2695
      2 C         141.5931  139.5336  162.2181 C.3     1  UNL1        0.0939
      3 C         140.4151  139.7664  163.1172 C.3     1  UNL1        0.1107
      4 N         139.2216  140.5199  162.6097 N.am    1  UNL1       -0.2764
      5 C         138.0437  140.7526  163.5088 C.2     1  UNL1        0.2301
      6 O         136.8501  141.5062  163.0014 O.2     1  UNL1       -0.2745
      7 C         139.2059  141.0407  161.2031 C.3     1  UNL1        0.1107
      8 C         140.3837  140.8080  160.3040 C.3     1  UNL1        0.0939
      9 C         142.7552  139.8217  159.9123 C.3     1  UNL1        0.0769
     10 C         144.0179  140.6063  160.1122 C.3     1  UNL1        0.0437
     11 O         145.2347  144.0241  166.2335 O.2     1  UNL1       -0.2449
     12 C         144.5611  144.1421  164.8984 C.2     1  UNL1        0.3413
     13 O         143.7762  145.3225  164.4082 O.3     1  UNL1       -0.4404
     14 C         143.2842  145.0103  163.0260 C.3     1  UNL1        0.2356
     15 C         143.7651  143.6369  162.6620 C.ar    1  UNL1        0.0272
     16 C         143.5863  142.8055  161.4263 C.ar    1  UNL1       -0.0047
     17 C         144.1967  141.4376  161.3479 C.ar    1  UNL1       -0.0210
     18 C         144.9859  140.9010  162.5052 C.ar    1  UNL1       -0.0040
     19 C         145.1647  141.7323  163.7408 C.ar    1  UNL1        0.0059
     20 C         144.5543  143.1002  163.8192 C.ar    1  UNL1        0.0751
     21 C         138.0595  140.2319  164.9154 C.3     1  UNL1        0.1116
     22 C         139.0420  140.7804  165.9074 C.ar    1  UNL1       -0.0108
     23 C         139.5208  142.1966  165.7840 C.ar    1  UNL1       -0.0021
     24 C         140.5033  142.7451  166.7759 C.ar    1  UNL1        0.0212
     25 C         141.0069  141.8775  167.8910 C.ar    1  UNL1        0.1136
     26 C         140.5281  140.4614  168.0143 C.ar    1  UNL1        0.1575
     27 F         141.0317  139.5938  169.1296 F       1  UNL1       -0.2026
     28 C         139.5456  139.9128  167.0225 C.ar    1  UNL1        0.0274
     29 N         141.9894  142.4261  168.8830 N.ar    1  UNL1       -0.1864
     30 C         141.6605  143.2890  170.0650 C.ar    1  UNL1        0.2259
     31 N         142.9411  143.6042  170.7795 N.ar    1  UNL1       -0.1045
     32 N         144.0616  142.9361  170.0391 N.ar    1  UNL1       -0.0222
     33 N         143.4734  142.2080  168.8669 N.ar    1  UNL1       -0.0384
@<TRIPOS>BOND
     1    11    12    2
     2    12    13    1
     3    13    14    1
     4    14    15    1
     5    15    16   ar
     6    16    17   ar
     7    17    10    1
     8    10     9    1
     9     9     1    1
    10     1     2    1
    11     2     3    1
    12     3     4    1
    13     4     5   am
    14     5     6    2
    15     5    21    1
    16    21    22    1
    17    22    23   ar
    18    23    24   ar
    19    24    25   ar
    20    25    29    1
    21    29    30   ar
    22    30    31   ar
    23    31    32   ar
    24    32    33   ar
    25    25    26   ar
    26    26    27    1
    27    26    28   ar
    28     4     7    1
    29     7     8    1
    30    17    18   ar
    31    18    19   ar
    32    19    20   ar
    33    20    12    1
    34    20    15   ar
    35     8     1    1
    36    28    22   ar
    37    33    29   ar
@<TRIPOS>MOLECULE
*****
 33 37 0 0 0
SMALL
GASTEIGER

@<TRIPOS>ATOM
      1 N         138.6466  140.4505  159.8936 N.3     1  UNL1       -0.2695
      2 C         137.7855  140.4408  161.1217 C.3     1  UNL1        0.0939
      3 C         138.1376  139.5517  162.2775 C.3     1  UNL1        0.1107
      4 N         139.3507  138.6724  162.2050 N.am    1  UNL1       -0.2764
      5 C         139.7027  137.7834  163.3607 C.2     1  UNL1        0.2301
      6 O         140.9158  136.9041  163.2883 O.2     1  UNL1       -0.2745
      7 C         140.2118  138.6822  160.9768 C.3     1  UNL1        0.1107
      8 C         139.8598  139.5712  159.8211 C.3     1  UNL1        0.0939
      9 C         138.2946  141.3396  158.7379 C.3     1  UNL1        0.0769
     10 C         138.7295  142.7751  158.7363 C.3     1  UNL1        0.0437
     11 O         144.3390  144.7487  162.6441 O.2     1  UNL1       -0.2449
     12 C         142.8414  144.6653  162.6382 C.2     1  UNL1        0.3413
     13 O         141.9302  145.0917  163.7509 O.3     1  UNL1       -0.4404
     14 C         140.5177  144.8307  163.3190 C.3     1  UNL1        0.2356
     15 C         140.5558  144.2430  161.9394 C.ar    1  UNL1        0.0272
     16 C         139.4683  143.7878  161.0120 C.ar    1  UNL1       -0.0047
     17 C         139.8170  143.2304  159.6638 C.ar    1  UNL1       -0.0210
     18 C         141.2531  143.1281  159.2431 C.ar    1  UNL1       -0.0040
     19 C         142.3406  143.5833  160.1705 C.ar    1  UNL1        0.0059
     20 C         141.9919  144.1408  161.5187 C.ar    1  UNL1        0.0751
     21 C         138.8416  137.7736  164.5889 C.3     1  UNL1        0.1116
     22 C         139.2030  138.6315  165.7651 C.ar    1  UNL1       -0.0108
     23 C         138.2274  138.8113  166.8902 C.ar    1  UNL1       -0.0021
     24 C         138.5888  139.6691  168.0664 C.ar    1  UNL1        0.0212
     25 C         139.9258  140.3473  168.1175 C.ar    1  UNL1        0.1136
     26 C         140.9013  140.1675  166.9923 C.ar    1  UNL1        0.1575
     27 F         142.2384  140.8457  167.0434 F       1  UNL1       -0.2026
     28 C         140.5400  139.3097  165.8161 C.ar    1  UNL1        0.0274
     29 N         140.2872  141.2052  169.2937 N.ar    1  UNL1       -0.1864
     30 C         140.8815  142.5810  169.2320 C.ar    1  UNL1        0.2259
     31 N         141.0794  143.0640  170.6382 N.ar    1  UNL1       -0.1045
     32 N         140.6073  141.9866  171.5691 N.ar    1  UNL1       -0.0222
     33 N         140.1177  140.8378  170.7381 N.ar    1  UNL1       -0.0384
@<TRIPOS>BOND
     1    11    12    2
     2    12    13    1
     3    13    14    1
     4    14    15    1
     5    15    16   ar
     6    16    17   ar
     7    17    10    1
     8    10     9    1
     9     9     1    1
    10     1     2    1
    11     2     3    1
    12     3     4    1
    13     4     5   am
    14     5     6    2
    15     5    21    1
    16    21    22    1
    17    22    23   ar
    18    23    24   ar
    19    24    25   ar
    20    25    29    1
    21    29    30   ar
    22    30    31   ar
    23    31    32   ar
    24    32    33   ar
    25    25    26   ar
    26    26    27    1
    27    26    28   ar
    28     4     7    1
    29     7     8    1
    30    17    18   ar
    31    18    19   ar
    32    19    20   ar
    33    20    12    1
    34    20    15   ar
    35     8     1    1
    36    28    22   ar
    37    33    29   ar
@<TRIPOS>MOLECULE
*****
 33 37 0 0 0
SMALL
GASTEIGER

@<TRIPOS>ATOM
      1 N         143.1444  139.8957  160.1162 N.3     1  UNL1       -0.2695
      2 C         143.7357  139.7111  161.4823 C.3     1  UNL1        0.0939
      3 C         142.9184  139.0891  162.5755 C.3     1  UNL1        0.1107
      4 N         141.5098  138.6517  162.3026 N.am    1  UNL1       -0.2764
      5 C         140.6925  138.0297  163.3958 C.2     1  UNL1        0.2301
      6 O         139.2838  137.5923  163.1230 O.2     1  UNL1       -0.2745
      7 C         140.9184  138.8363  160.9365 C.3     1  UNL1        0.1107
      8 C         141.7357  139.4583  159.8433 C.3     1  UNL1        0.0939
      9 C         143.9617  140.5177  159.0230 C.3     1  UNL1        0.0769
     10 C         144.1944  141.9995  159.0110 C.3     1  UNL1        0.0437
     11 O         139.1392  146.3644  161.4657 O.2     1  UNL1       -0.2449
     12 C         140.4055  145.6527  161.8400 C.2     1  UNL1        0.3413
     13 O         141.0862  145.7080  163.1755 O.3     1  UNL1       -0.4404
     14 C         142.3148  144.8503  163.1054 C.3     1  UNL1        0.2356
     15 C         142.3934  144.2650  161.7265 C.ar    1  UNL1        0.0272
     16 C         143.3871  143.3445  161.0820 C.ar    1  UNL1       -0.0047
     17 C         143.2007  142.9200  159.6555 C.ar    1  UNL1       -0.0210
     18 C         142.0207  143.4160  158.8735 C.ar    1  UNL1       -0.0040
     19 C         141.0271  144.3365  159.5179 C.ar    1  UNL1        0.0059
     20 C         141.2134  144.7610  160.9444 C.ar    1  UNL1        0.0751
     21 C         141.2838  137.8451  164.7619 C.3     1  UNL1        0.1116
     22 C         141.0070  138.8496  165.8410 C.ar    1  UNL1       -0.0108
     23 C         139.5921  139.1689  166.2234 C.ar    1  UNL1       -0.0021
     24 C         139.3152  140.1734  167.3024 C.ar    1  UNL1        0.0212
     25 C         140.4532  140.8585  167.9991 C.ar    1  UNL1        0.1136
     26 C         141.8681  140.5392  167.6168 C.ar    1  UNL1        0.1575
     27 F         143.0062  141.2244  168.3136 F       1  UNL1       -0.2026
     28 C         142.1450  139.5348  166.5378 C.ar    1  UNL1        0.0274
     29 N         140.1764  141.8631  169.0782 N.ar    1  UNL1       -0.1864
     30 C         140.5263  143.3211  169.0363 C.ar    1  UNL1        0.2259
     31 N         140.0672  143.9450  170.3208 N.ar    1  UNL1       -0.1045
     32 N         139.4336  142.8725  171.1566 N.ar    1  UNL1       -0.0222
     33 N         139.5011  141.5859  170.3886 N.ar    1  UNL1       -0.0384
@<TRIPOS>BOND
     1    11    12    2
     2    12    13    1
     3    13    14    1
     4    14    15    1
     5    15    16   ar
     6    16    17   ar
     7    17    10    1
     8    10     9    1
     9     9     1    1
    10     1     2    1
    11     2     3    1
    12     3     4    1
    13     4     5   am
    14     5     6    2
    15     5    21    1
    16    21    22    1
    17    22    23   ar
    18    23    24   ar
    19    24    25   ar
    20    25    29    1
    21    29    30   ar
    22    30    31   ar
    23    31    32   ar
    24    32    33   ar
    25    25    26   ar
    26    26    27    1
    27    26    28   ar
    28     4     7    1
    29     7     8    1
    30    17    18   ar
    31    18    19   ar
    32    19    20   ar
    33    20    12    1
    34    20    15   ar
    35     8     1    1
    36    28    22   ar
    37    33    29   ar
@<TRIPOS>MOLECULE
*****
 33 37 0 0 0
SMALL
GASTEIGER

@<TRIPOS>ATOM
      1 N         138.3095  141.5229  161.8498 N.3     1  UNL1       -0.2695
      2 C         138.0353  142.0089  163.2421 C.3     1  UNL1        0.0939
      3 C         138.1213  141.0580  164.3990 C.3     1  UNL1        0.1107
      4 N         138.4815  139.6211  164.1636 N.am    1  UNL1       -0.2764
      5 C         138.5676  138.6702  165.3205 C.2     1  UNL1        0.2301
      6 O         138.9278  137.2332  165.0851 O.2     1  UNL1       -0.2745
      7 C         138.7558  139.1351  162.7713 C.3     1  UNL1        0.1107
      8 C         138.6698  140.0859  161.6144 C.3     1  UNL1        0.0939
      9 C         138.2235  142.4738  160.6929 C.3     1  UNL1        0.0769
     10 C         139.4001  143.3350  160.3409 C.3     1  UNL1        0.0437
     11 O         145.8426  141.6589  162.8543 O.2     1  UNL1       -0.2449
     12 C         144.6420  142.5261  163.0927 C.2     1  UNL1        0.3413
     13 O         144.4706  143.5051  164.2161 O.3     1  UNL1       -0.4404
     14 C         143.1248  144.1504  164.0672 C.3     1  UNL1        0.2356
     15 C         142.4644  143.5703  162.8517 C.ar    1  UNL1        0.0272
     16 C         141.1304  143.8265  162.2155 C.ar    1  UNL1       -0.0047
     17 C         140.7341  143.0788  160.9771 C.ar    1  UNL1       -0.0210
     18 C         141.6719  142.0749  160.3748 C.ar    1  UNL1       -0.0040
     19 C         143.0059  141.8186  161.0109 C.ar    1  UNL1        0.0059
     20 C         143.4022  142.5664  162.2494 C.ar    1  UNL1        0.0751
     21 C         138.2933  139.1563  166.7128 C.3     1  UNL1        0.1116
     22 C         139.3234  139.9687  167.4401 C.ar    1  UNL1       -0.0108
     23 C         139.1961  140.1919  168.9179 C.ar    1  UNL1       -0.0021
     24 C         140.2261  141.0042  169.6452 C.ar    1  UNL1        0.0212
     25 C         141.3834  141.5935  168.8947 C.ar    1  UNL1        0.1136
     26 C         141.5107  141.3703  167.4169 C.ar    1  UNL1        0.1575
     27 F         142.6682  141.9596  166.6663 F       1  UNL1       -0.2026
     28 C         140.4807  140.5580  166.6896 C.ar    1  UNL1        0.0274
     29 N         142.4136  142.4059  169.6220 N.ar    1  UNL1       -0.1864
     30 C         143.9011  142.2709  169.4845 C.ar    1  UNL1        0.2259
     31 N         144.5438  143.2775  170.3920 N.ar    1  UNL1       -0.1045
     32 N         143.4534  144.0348  171.0904 N.ar    1  UNL1       -0.0222
     33 N         142.1369  143.4961  170.6145 N.ar    1  UNL1       -0.0384
@<TRIPOS>BOND
     1    11    12    2
     2    12    13    1
     3    13    14    1
     4    14    15    1
     5    15    16   ar
     6    16    17   ar
     7    17    10    1
     8    10     9    1
     9     9     1    1
    10     1     2    1
    11     2     3    1
    12     3     4    1
    13     4     5   am
    14     5     6    2
    15     5    21    1
    16    21    22    1
    17    22    23   ar
    18    23    24   ar
    19    24    25   ar
    20    25    29    1
    21    29    30   ar
    22    30    31   ar
    23    31    32   ar
    24    32    33   ar
    25    25    26   ar
    26    26    27    1
    27    26    28   ar
    28     4     7    1
    29     7     8    1
    30    17    18   ar
    31    18    19   ar
    32    19    20   ar
    33    20    12    1
    34    20    15   ar
    35     8     1    1
    36    28    22   ar
    37    33    29   ar
