@<TRIPOS>MOLECULE
*****
 41 45 0 0 0
SMALL
GASTEIGER

@<TRIPOS>ATOM
      1 C         138.4937  140.3114  158.4811 C.2     1  UNL1        0.4052
      2 O         137.1551  140.5825  157.8607 O.2     1  UNL1       -0.2262
      3 N         138.5767  139.7099  159.8526 N.am    1  UNL1       -0.2460
      4 C         139.8371  139.3841  160.5977 C.3     1  UNL1        0.0968
      5 C         139.4532  138.8014  161.9255 C.3     1  UNL1        0.0234
      6 C         138.7763  138.2632  163.1511 C.3     1  UNL1        0.0231
      7 C         137.9555  138.7670  162.0011 C.3     1  UNL1        0.0234
      8 C         137.4138  139.3285  160.7200 C.3     1  UNL1        0.0968
      9 O         139.7493  140.6420  157.7298 O.3     1  UNL1       -0.4295
     10 C         140.4026  141.9798  157.9129 C.3     1  UNL1        0.2367
     11 C         142.6053  142.5452  161.1654 C.ar    1  UNL1        0.0685
     12 C         142.1883  142.0952  159.7966 C.ar    1  UNL1        0.0096
     13 C         140.8196  142.4298  159.2817 C.ar    1  UNL1        0.0222
     14 C         139.8681  143.2142  160.1356 C.ar    1  UNL1        0.0058
     15 C         140.2852  143.6642  161.5044 C.ar    1  UNL1        0.0763
     16 C         141.6537  143.3297  162.0193 C.ar    1  UNL1        0.0167
     17 N         145.3423  141.8761  162.1952 N.1     1  UNL1       -0.1908
     18 C         143.9738  142.2106  161.6803 C.1     1  UNL1        0.1004
     19 C         139.3336  144.4487  162.3583 C.2     1  UNL1        0.3466
     20 O         138.9482  145.8439  161.9646 O.2     1  UNL1       -0.2447
     21 O         138.7674  143.8381  163.6059 O.3     1  UNL1       -0.3701
     22 C         138.6483  144.6593  164.8555 C.3     1  UNL1        0.5774
     23 F         138.5291  145.4805  166.1051 F       1  UNL1       -0.1328
     24 F         137.1922  144.3100  164.9461 F       1  UNL1       -0.1328
     25 F         140.1042  145.0085  164.7648 F       1  UNL1       -0.1328
     26 C         138.8593  137.6617  164.5227 C.3     1  UNL1        0.0910
     27 N         139.1823  138.5284  165.7035 N.am    1  UNL1       -0.2888
     28 C         140.5925  138.9832  165.9366 C.2     1  UNL1        0.3043
     29 O         141.6798  138.5713  164.9889 O.2     1  UNL1       -0.2526
     30 N         140.9156  139.8500  167.1175 N.am    1  UNL1       -0.2565
     31 C         142.3258  140.3048  167.3506 C.3     1  UNL1        0.1003
     32 C         142.6488  141.1716  168.5315 C.3     1  UNL1        0.0557
     33 C         141.5615  141.5835  169.4792 C.ar    1  UNL1        0.0700
     34 C         141.5777  142.4262  170.7201 C.ar    1  UNL1        0.2564
     35 O         142.7826  143.0869  171.3215 O.3     1  UNL1       -0.4902
     36 N         140.1774  142.4922  171.2538 N.ar    1  UNL1       -0.0397
     37 O         139.2959  141.6903  170.3428 O.2     1  UNL1       -0.3535
     38 C         140.1513  141.1287  169.2461 C.ar    1  UNL1        0.1736
     39 C         139.8283  140.2620  168.0653 C.3     1  UNL1        0.1620
     40 H         138.4687  138.7988  166.3256 H       1  UNL1        0.1510
     41 H         143.6217  142.9894  170.9160 H       1  UNL1        0.2938
@<TRIPOS>BOND
     1    17    18    3
     2    18    11    1
     3    11    12   ar
     4    12    13   ar
     5    13    10    1
     6    10     9    1
     7     9     1    1
     8     1     2    2
     9     1     3   am
    10     3     4    1
    11     5     4    1
    12     5     6    1
    13     6    26    1
    14    26    27    1
    15    27    28   am
    16    28    29    2
    17    28    30   am
    18    30    31    1
    19    31    32    1
    20    32    33    1
    21    33    34   ar
    22    34    35    1
    23    34    36   ar
    24    36    37   ar
    25    37    38   ar
    26    38    39    1
    27     6     7    1
    28     7     8    1
    29    13    14   ar
    30    14    15   ar
    31    15    19    1
    32    19    20    2
    33    19    21    1
    34    21    22    1
    35    22    23    1
    36    22    24    1
    37    22    25    1
    38    15    16   ar
    39    16    11   ar
    40     8     3    1
    41     7     5    1
    42    39    30    1
    43    38    33   ar
    44    27    40    1
    45    35    41    1
@<TRIPOS>MOLECULE
*****
 41 45 0 0 0
SMALL
GASTEIGER

@<TRIPOS>ATOM
      1 C         144.9650  140.8631  163.3419 C.2     1  UNL1        0.4052
      2 O         145.2256  139.9511  164.5041 O.2     1  UNL1       -0.2262
      3 N         144.4428  140.3036  162.0519 N.am    1  UNL1       -0.2460
      4 C         144.1364  141.0880  160.8106 C.3     1  UNL1        0.0968
      5 C         143.6395  140.1306  159.7682 C.3     1  UNL1        0.0234
      6 C         143.1869  138.9581  158.9495 C.3     1  UNL1        0.0231
      7 C         143.6389  138.7546  160.3652 C.3     1  UNL1        0.0234
      8 C         144.1353  138.8615  161.7766 C.3     1  UNL1        0.0968
      9 O         145.2267  142.3345  163.4700 O.3     1  UNL1       -0.4295
     10 C         144.8003  143.0672  164.7075 C.3     1  UNL1        0.2367
     11 C         140.8544  143.4348  164.9183 C.ar    1  UNL1        0.0685
     12 C         142.2648  143.5573  164.4227 C.ar    1  UNL1        0.0096
     13 C         143.3899  142.9447  165.2031 C.ar    1  UNL1        0.0222
     14 C         143.1045  142.2097  166.4791 C.ar    1  UNL1        0.0058
     15 C         141.6940  142.0872  166.9747 C.ar    1  UNL1        0.0763
     16 C         140.5690  142.6998  166.1944 C.ar    1  UNL1        0.0167
     17 N         138.6043  144.6599  163.3576 N.1     1  UNL1       -0.1908
     18 C         139.7293  144.0474  164.1379 C.1     1  UNL1        0.1004
     19 C         141.4087  141.3521  168.2508 C.2     1  UNL1        0.3466
     20 O         140.8682  139.9536  168.2059 O.2     1  UNL1       -0.2447
     21 O         141.6638  142.0155  169.5717 O.3     1  UNL1       -0.3701
     22 C         141.0805  143.3677  169.8568 C.3     1  UNL1        0.5774
     23 F         140.4972  144.7200  170.1419 F       1  UNL1       -0.1328
     24 F         142.4342  143.8644  170.2703 F       1  UNL1       -0.1328
     25 F         139.7269  142.8711  169.4432 F       1  UNL1       -0.1328
     26 C         142.6647  138.3987  157.6594 C.3     1  UNL1        0.0910
     27 N         143.0124  136.9968  157.2545 N.am    1  UNL1       -0.2888
     28 C         142.0310  136.1774  156.4702 C.2     1  UNL1        0.3043
     29 O         140.7018  136.7598  156.0906 O.2     1  UNL1       -0.2526
     30 N         142.3787  134.7755  156.0653 N.am    1  UNL1       -0.2565
     31 C         141.3973  133.9561  155.2809 C.3     1  UNL1        0.1003
     32 C         141.7450  132.5542  154.8761 C.3     1  UNL1        0.0557
     33 C         143.0742  131.9718  155.2556 C.ar    1  UNL1        0.0700
     34 C         143.6917  130.6290  154.9993 C.ar    1  UNL1        0.2564
     35 O         143.0575  129.4957  154.2488 O.3     1  UNL1       -0.4902
     36 N         145.0548  130.6186  155.6253 N.ar    1  UNL1       -0.0397
     37 O         145.2797  131.9549  156.2685 O.2     1  UNL1       -0.3535
     38 C         144.0557  132.7913  156.0400 C.ar    1  UNL1        0.1736
     39 C         143.7079  134.1931  156.4448 C.3     1  UNL1        0.1620
     40 H         143.8848  136.6145  157.5036 H       1  UNL1        0.1510
     41 H         142.1972  129.5942  153.8908 H       1  UNL1        0.2938
@<TRIPOS>BOND
     1    17    18    3
     2    18    11    1
     3    11    12   ar
     4    12    13   ar
     5    13    10    1
     6    10     9    1
     7     9     1    1
     8     1     2    2
     9     1     3   am
    10     3     4    1
    11     5     4    1
    12     5     6    1
    13     6    26    1
    14    26    27    1
    15    27    28   am
    16    28    29    2
    17    28    30   am
    18    30    31    1
    19    31    32    1
    20    32    33    1
    21    33    34   ar
    22    34    35    1
    23    34    36   ar
    24    36    37   ar
    25    37    38   ar
    26    38    39    1
    27     6     7    1
    28     7     8    1
    29    13    14   ar
    30    14    15   ar
    31    15    19    1
    32    19    20    2
    33    19    21    1
    34    21    22    1
    35    22    23    1
    36    22    24    1
    37    22    25    1
    38    15    16   ar
    39    16    11   ar
    40     8     3    1
    41     7     5    1
    42    39    30    1
    43    38    33   ar
    44    27    40    1
    45    35    41    1
@<TRIPOS>MOLECULE
*****
 41 45 0 0 0
SMALL
GASTEIGER

@<TRIPOS>ATOM
      1 C         142.2916  138.0206  160.9089 C.2     1  UNL1        0.4052
      2 O         143.7599  138.1381  160.6252 O.2     1  UNL1       -0.2262
      3 N         141.2940  138.6083  159.9553 N.am    1  UNL1       -0.2460
      4 C         139.8021  138.5695  160.1053 C.3     1  UNL1        0.0968
      5 C         139.1993  139.2753  158.9269 C.3     1  UNL1        0.0234
      6 C         138.8950  140.0218  157.6619 C.3     1  UNL1        0.0231
      7 C         140.3187  139.7503  158.0487 C.3     1  UNL1        0.0234
      8 C         141.6133  139.3381  158.6843 C.3     1  UNL1        0.0968
      9 O         141.8209  137.3153  162.1463 O.3     1  UNL1       -0.4295
     10 C         141.8546  138.0201  163.4700 C.3     1  UNL1        0.2367
     11 C         138.5931  138.8953  165.5550 C.ar    1  UNL1        0.0685
     12 C         139.8074  138.1647  165.0632 C.ar    1  UNL1        0.0096
     13 C         140.6404  138.7507  163.9618 C.ar    1  UNL1        0.0222
     14 C         140.2591  140.0672  163.3524 C.ar    1  UNL1        0.0058
     15 C         139.0449  140.7977  163.8442 C.ar    1  UNL1        0.0763
     16 C         138.2119  140.2119  164.9454 C.ar    1  UNL1        0.0167
     17 N         136.9272  137.7235  167.7575 N.1     1  UNL1       -0.1908
     18 C         137.7602  138.3094  166.6562 C.1     1  UNL1        0.1004
     19 C         138.6636  142.1143  163.2346 C.2     1  UNL1        0.3466
     20 O         137.4727  142.2037  162.3270 O.2     1  UNL1       -0.2447
     21 O         139.4733  143.3413  163.5327 O.3     1  UNL1       -0.3701
     22 C         139.0589  144.2621  164.6419 C.3     1  UNL1        0.5774
     23 F         138.6444  145.1829  165.7511 F       1  UNL1       -0.1328
     24 F         138.0165  144.8680  163.7494 F       1  UNL1       -0.1328
     25 F         140.1012  143.6562  165.5343 F       1  UNL1       -0.1328
     26 C         137.8975  140.6095  156.7083 C.3     1  UNL1        0.0910
     27 N         136.4360  140.3165  156.8768 N.am    1  UNL1       -0.2888
     28 C         135.4251  141.0337  156.0321 C.2     1  UNL1        0.3043
     29 O         135.8755  142.0438  155.0188 O.2     1  UNL1       -0.2526
     30 N         133.9636  140.7407  156.2005 N.am    1  UNL1       -0.2565
     31 C         132.9526  141.4578  155.3558 C.3     1  UNL1        0.1003
     32 C         131.4913  141.1648  155.5243 C.3     1  UNL1        0.0557
     33 C         131.0408  140.1546  156.5375 C.ar    1  UNL1        0.0700
     34 C         129.6785  139.6607  156.9253 C.ar    1  UNL1        0.2564
     35 O         128.3760  140.1103  156.3327 O.3     1  UNL1       -0.4902
     36 N         129.8476  138.6383  158.0098 N.ar    1  UNL1       -0.0397
     37 O         131.3143  138.5003  158.2921 O.2     1  UNL1       -0.3535
     38 C         132.0517  139.4375  157.3823 C.ar    1  UNL1        0.1736
     39 C         133.5131  139.7305  157.2138 C.3     1  UNL1        0.1620
     40 H         136.1403  139.6535  157.5418 H       1  UNL1        0.1510
     41 H         128.3680  140.7577  155.6554 H       1  UNL1        0.2938
@<TRIPOS>BOND
     1    17    18    3
     2    18    11    1
     3    11    12   ar
     4    12    13   ar
     5    13    10    1
     6    10     9    1
     7     9     1    1
     8     1     2    2
     9     1     3   am
    10     3     4    1
    11     5     4    1
    12     5     6    1
    13     6    26    1
    14    26    27    1
    15    27    28   am
    16    28    29    2
    17    28    30   am
    18    30    31    1
    19    31    32    1
    20    32    33    1
    21    33    34   ar
    22    34    35    1
    23    34    36   ar
    24    36    37   ar
    25    37    38   ar
    26    38    39    1
    27     6     7    1
    28     7     8    1
    29    13    14   ar
    30    14    15   ar
    31    15    19    1
    32    19    20    2
    33    19    21    1
    34    21    22    1
    35    22    23    1
    36    22    24    1
    37    22    25    1
    38    15    16   ar
    39    16    11   ar
    40     8     3    1
    41     7     5    1
    42    39    30    1
    43    38    33   ar
    44    27    40    1
    45    35    41    1
@<TRIPOS>MOLECULE
*****
 41 45 0 0 0
SMALL
GASTEIGER

@<TRIPOS>ATOM
      1 C         143.4781  142.9450  164.0602 C.2     1  UNL1        0.4052
      2 O         144.0170  144.3065  164.3858 O.2     1  UNL1       -0.2262
      3 N         143.6048  142.4016  162.6679 N.am    1  UNL1       -0.2460
      4 C         143.1167  141.0641  162.1956 C.3     1  UNL1        0.0968
      5 C         143.4521  140.9362  160.7391 C.3     1  UNL1        0.0234
      6 C         143.9096  141.0946  159.3195 C.3     1  UNL1        0.0231
      7 C         144.1476  142.1944  160.3113 C.3     1  UNL1        0.0234
      8 C         144.2419  143.1001  161.5033 C.3     1  UNL1        0.0968
      9 O         142.8124  142.1270  165.1269 O.3     1  UNL1       -0.4295
     10 C         141.3170  142.1215  165.2441 C.3     1  UNL1        0.2367
     11 C         139.0113  139.8803  167.5703 C.ar    1  UNL1        0.0685
     12 C         139.6654  140.4444  166.3439 C.ar    1  UNL1        0.0096
     13 C         140.6629  141.5575  166.4705 C.ar    1  UNL1        0.0222
     14 C         141.0064  142.1064  167.8235 C.ar    1  UNL1        0.0058
     15 C         140.3524  141.5424  169.0499 C.ar    1  UNL1        0.0763
     16 C         139.3549  140.4294  168.9234 C.ar    1  UNL1        0.0167
     17 N         137.0163  137.6543  167.3172 N.1     1  UNL1       -0.1908
     18 C         138.0138  138.7673  167.4438 C.1     1  UNL1        0.1004
     19 C         140.6959  142.0914  170.4030 C.2     1  UNL1        0.3466
     20 O         139.6982  142.9273  171.1486 O.2     1  UNL1       -0.2447
     21 O         142.0371  141.8046  171.0103 O.3     1  UNL1       -0.3701
     22 C         143.2882  142.2305  170.3009 C.3     1  UNL1        0.5774
     23 F         144.5394  142.6564  169.5915 F       1  UNL1       -0.1328
     24 F         143.0303  143.6532  170.7004 F       1  UNL1       -0.1328
     25 F         143.5460  140.8078  169.9015 F       1  UNL1       -0.1328
     26 C         144.0363  140.5512  157.9271 C.3     1  UNL1        0.0910
     27 N         143.7057  139.1146  157.6497 N.am    1  UNL1       -0.2888
     28 C         142.9033  138.7506  156.4358 C.2     1  UNL1        0.3043
     29 O         142.4317  139.8231  155.4992 O.2     1  UNL1       -0.2526
     30 N         142.5727  137.3140  156.1584 N.am    1  UNL1       -0.2565
     31 C         141.7703  136.9500  154.9444 C.3     1  UNL1        0.1003
     32 C         141.4397  135.5134  154.6671 C.3     1  UNL1        0.0557
     33 C         141.9114  134.4409  155.6037 C.ar    1  UNL1        0.0700
     34 C         141.7408  132.9506  155.5904 C.ar    1  UNL1        0.2564
     35 O         141.0029  132.1568  154.5535 O.3     1  UNL1       -0.4902
     36 N         142.4378  132.3937  156.7963 N.ar    1  UNL1       -0.0397
     37 O         143.0390  133.5397  157.5547 O.2     1  UNL1       -0.3535
     38 C         142.7137  134.8049  156.8176 C.ar    1  UNL1        0.1736
     39 C         143.0443  136.2415  157.0950 C.3     1  UNL1        0.1620
     40 H         144.0152  138.4107  158.2644 H       1  UNL1        0.1510
     41 H         140.5965  132.5933  153.8309 H       1  UNL1        0.2938
@<TRIPOS>BOND
     1    17    18    3
     2    18    11    1
     3    11    12   ar
     4    12    13   ar
     5    13    10    1
     6    10     9    1
     7     9     1    1
     8     1     2    2
     9     1     3   am
    10     3     4    1
    11     5     4    1
    12     5     6    1
    13     6    26    1
    14    26    27    1
    15    27    28   am
    16    28    29    2
    17    28    30   am
    18    30    31    1
    19    31    32    1
    20    32    33    1
    21    33    34   ar
    22    34    35    1
    23    34    36   ar
    24    36    37   ar
    25    37    38   ar
    26    38    39    1
    27     6     7    1
    28     7     8    1
    29    13    14   ar
    30    14    15   ar
    31    15    19    1
    32    19    20    2
    33    19    21    1
    34    21    22    1
    35    22    23    1
    36    22    24    1
    37    22    25    1
    38    15    16   ar
    39    16    11   ar
    40     8     3    1
    41     7     5    1
    42    39    30    1
    43    38    33   ar
    44    27    40    1
    45    35    41    1
@<TRIPOS>MOLECULE
*****
 41 45 0 0 0
SMALL
GASTEIGER

@<TRIPOS>ATOM
      1 C         142.8742  140.5472  167.4808 C.2     1  UNL1        0.4052
      2 O         142.9758  139.5679  168.6125 O.2     1  UNL1       -0.2262
      3 N         143.1816  140.1087  166.0797 N.am    1  UNL1       -0.2460
      4 C         143.1238  140.9706  164.8534 C.3     1  UNL1        0.0968
      5 C         143.5072  140.1258  163.6746 C.3     1  UNL1        0.0234
      6 C         143.9208  139.0541  162.7101 C.3     1  UNL1        0.0231
      7 C         143.8020  138.7419  164.1724 C.3     1  UNL1        0.0234
      8 C         143.6007  138.7313  165.6588 C.3     1  UNL1        0.0968
      9 O         142.4653  141.9650  167.7503 O.3     1  UNL1       -0.4295
     10 C         141.0113  142.3318  167.7889 C.3     1  UNL1        0.2367
     11 C         138.6850  141.9881  164.5920 C.ar    1  UNL1        0.0685
     12 C         139.6320  142.5688  165.6000 C.ar    1  UNL1        0.0096
     13 C         140.0643  141.7511  166.7809 C.ar    1  UNL1        0.0222
     14 C         139.5497  140.3528  166.9538 C.ar    1  UNL1        0.0058
     15 C         138.6027  139.7721  165.9458 C.ar    1  UNL1        0.0763
     16 C         138.1704  140.5897  164.7649 C.ar    1  UNL1        0.0167
     17 N         137.8203  143.6233  162.2302 N.1     1  UNL1       -0.1908
     18 C         138.2526  142.8057  163.4111 C.1     1  UNL1        0.1004
     19 C         138.0881  138.3738  166.1187 C.2     1  UNL1        0.3466
     20 O         137.0457  138.0813  167.1569 O.2     1  UNL1       -0.2447
     21 O         138.6160  137.2680  165.2535 O.3     1  UNL1       -0.3701
     22 C         139.6302  137.5672  164.1897 C.3     1  UNL1        0.5774
     23 F         140.6446  137.8664  163.1259 F       1  UNL1       -0.1328
     24 F         140.7313  137.4162  165.1972 F       1  UNL1       -0.1328
     25 F         138.5291  137.7182  163.1824 F       1  UNL1       -0.1328
     26 C         144.2282  138.6157  161.3089 C.3     1  UNL1        0.0910
     27 N         143.1436  138.6006  160.2728 N.am    1  UNL1       -0.2888
     28 C         142.6348  139.8905  159.7008 C.2     1  UNL1        0.3043
     29 O         143.2106  141.1956  160.1650 O.2     1  UNL1       -0.2526
     30 N         141.5503  139.8755  158.6646 N.am    1  UNL1       -0.2565
     31 C         141.0415  141.1654  158.0927 C.3     1  UNL1        0.1003
     32 C         139.9570  141.1503  157.0566 C.3     1  UNL1        0.0557
     33 C         139.3812  139.8453  156.5924 C.ar    1  UNL1        0.0700
     34 C         138.3123  139.5191  155.5918 C.ar    1  UNL1        0.2564
     35 O         137.5322  140.5104  154.7802 O.3     1  UNL1       -0.4902
     36 N         138.1605  138.0275  155.5455 N.ar    1  UNL1       -0.0397
     37 O         139.1356  137.4319  156.5174 O.2     1  UNL1       -0.3535
     38 C         139.8900  138.5554  157.1644 C.ar    1  UNL1        0.1736
     39 C         140.9745  138.5705  158.2005 C.3     1  UNL1        0.1620
     40 H         142.7657  137.7441  159.9681 H       1  UNL1        0.1510
     41 H         137.6967  141.4278  154.8767 H       1  UNL1        0.2938
@<TRIPOS>BOND
     1    17    18    3
     2    18    11    1
     3    11    12   ar
     4    12    13   ar
     5    13    10    1
     6    10     9    1
     7     9     1    1
     8     1     2    2
     9     1     3   am
    10     3     4    1
    11     5     4    1
    12     5     6    1
    13     6    26    1
    14    26    27    1
    15    27    28   am
    16    28    29    2
    17    28    30   am
    18    30    31    1
    19    31    32    1
    20    32    33    1
    21    33    34   ar
    22    34    35    1
    23    34    36   ar
    24    36    37   ar
    25    37    38   ar
    26    38    39    1
    27     6     7    1
    28     7     8    1
    29    13    14   ar
    30    14    15   ar
    31    15    19    1
    32    19    20    2
    33    19    21    1
    34    21    22    1
    35    22    23    1
    36    22    24    1
    37    22    25    1
    38    15    16   ar
    39    16    11   ar
    40     8     3    1
    41     7     5    1
    42    39    30    1
    43    38    33   ar
    44    27    40    1
    45    35    41    1
@<TRIPOS>MOLECULE
*****
 41 45 0 0 0
SMALL
GASTEIGER

@<TRIPOS>ATOM
      1 C         141.3273  139.8445  158.6610 C.2     1  UNL1        0.4052
      2 O         142.1509  138.8862  157.8527 O.2     1  UNL1       -0.2262
      3 N         140.7580  139.4160  159.9810 N.am    1  UNL1       -0.2460
      4 C         139.9200  140.2596  160.8953 C.3     1  UNL1        0.0968
      5 C         139.5709  139.4335  162.0978 C.3     1  UNL1        0.0234
      6 C         139.3891  138.3854  163.1553 C.3     1  UNL1        0.0231
      7 C         140.1932  138.0795  161.9266 C.3     1  UNL1        0.0234
      8 C         140.9269  138.0687  160.6184 C.3     1  UNL1        0.0968
      9 O         141.0729  141.2314  158.1493 O.3     1  UNL1       -0.4295
     10 C         141.9801  142.3568  158.5501 C.3     1  UNL1        0.2367
     11 C         142.7770  143.2379  162.3367 C.ar    1  UNL1        0.0685
     12 C         142.8896  142.6350  160.9679 C.ar    1  UNL1        0.0096
     13 C         141.8675  142.9597  159.9190 C.ar    1  UNL1        0.0222
     14 C         140.7330  143.8873  160.2390 C.ar    1  UNL1        0.0058
     15 C         140.6204  144.4901  161.6079 C.ar    1  UNL1        0.0763
     16 C         141.6424  144.1655  162.6567 C.ar    1  UNL1        0.0167
     17 N         144.8209  142.5886  164.4345 N.1     1  UNL1       -0.1908
     18 C         143.7989  142.9133  163.3856 C.1     1  UNL1        0.1004
     19 C         139.4858  145.4177  161.9279 C.2     1  UNL1        0.3466
     20 O         139.6583  146.8986  161.7626 O.2     1  UNL1       -0.2447
     21 O         138.1787  144.8644  162.4130 O.3     1  UNL1       -0.3701
     22 C         138.1048  143.4576  162.9280 C.3     1  UNL1        0.5774
     23 F         138.0309  142.0507  163.4431 F       1  UNL1       -0.1328
     24 F         138.5388  143.9311  164.2836 F       1  UNL1       -0.1328
     25 F         137.6709  142.9842  161.5725 F       1  UNL1       -0.1328
     26 C         138.8199  137.9569  164.4753 C.3     1  UNL1        0.0910
     27 N         139.1154  138.7512  165.7130 N.am    1  UNL1       -0.2888
     28 C         140.5352  139.0650  166.0815 C.2     1  UNL1        0.3043
     29 O         141.6594  138.5845  165.2125 O.2     1  UNL1       -0.2526
     30 N         140.8307  139.8593  167.3192 N.am    1  UNL1       -0.2565
     31 C         142.2505  140.1731  167.6878 C.3     1  UNL1        0.1003
     32 C         142.5460  140.9674  168.9254 C.3     1  UNL1        0.0557
     33 C         141.4217  141.4479  169.7944 C.ar    1  UNL1        0.0700
     34 C         141.4055  142.2449  171.0652 C.ar    1  UNL1        0.2564
     35 O         142.6079  142.7707  171.7915 O.3     1  UNL1       -0.4902
     36 N         139.9757  142.4236  171.4819 N.ar    1  UNL1       -0.0397
     37 O         139.1083  141.7372  170.4687 O.2     1  UNL1       -0.3535
     38 C         140.0020  141.1341  169.4259 C.ar    1  UNL1        0.1736
     39 C         139.7065  140.3398  168.1883 C.3     1  UNL1        0.1620
     40 H         138.3776  139.0666  166.2834 H       1  UNL1        0.1510
     41 H         143.4670  142.6087  171.4542 H       1  UNL1        0.2938
@<TRIPOS>BOND
     1    17    18    3
     2    18    11    1
     3    11    12   ar
     4    12    13   ar
     5    13    10    1
     6    10     9    1
     7     9     1    1
     8     1     2    2
     9     1     3   am
    10     3     4    1
    11     5     4    1
    12     5     6    1
    13     6    26    1
    14    26    27    1
    15    27    28   am
    16    28    29    2
    17    28    30   am
    18    30    31    1
    19    31    32    1
    20    32    33    1
    21    33    34   ar
    22    34    35    1
    23    34    36   ar
    24    36    37   ar
    25    37    38   ar
    26    38    39    1
    27     6     7    1
    28     7     8    1
    29    13    14   ar
    30    14    15   ar
    31    15    19    1
    32    19    20    2
    33    19    21    1
    34    21    22    1
    35    22    23    1
    36    22    24    1
    37    22    25    1
    38    15    16   ar
    39    16    11   ar
    40     8     3    1
    41     7     5    1
    42    39    30    1
    43    38    33   ar
    44    27    40    1
    45    35    41    1
@<TRIPOS>MOLECULE
*****
 41 45 0 0 0
SMALL
GASTEIGER

@<TRIPOS>ATOM
      1 C         138.3540  140.3211  159.0727 C.2     1  UNL1        0.4052
      2 O         138.6352  139.4644  157.8739 O.2     1  UNL1       -0.2262
      3 N         138.4693  139.7425  160.4518 N.am    1  UNL1       -0.2460
      4 C         138.2205  140.4730  161.7380 C.3     1  UNL1        0.0968
      5 C         138.4512  139.5137  162.8679 C.3     1  UNL1        0.0234
      6 C         138.7468  138.3509  163.7683 C.3     1  UNL1        0.0231
      7 C         138.8425  138.1904  162.2800 C.3     1  UNL1        0.0234
      8 C         138.8537  138.3318  160.7867 C.3     1  UNL1        0.0968
      9 O         137.9573  141.7565  158.8924 O.3     1  UNL1       -0.4295
     10 C         139.0095  142.8243  158.8389 C.3     1  UNL1        0.2367
     11 C         139.8113  143.9552  162.5575 C.ar    1  UNL1        0.0685
     12 C         139.0443  143.5954  161.3197 C.ar    1  UNL1        0.0096
     13 C         139.7765  143.1841  160.0767 C.ar    1  UNL1        0.0222
     14 C         141.2756  143.1325  160.0717 C.ar    1  UNL1        0.0058
     15 C         142.0426  143.4923  161.3095 C.ar    1  UNL1        0.0763
     16 C         141.3105  143.9036  162.5524 C.ar    1  UNL1        0.0167
     17 N         138.3472  144.7779  165.0433 N.1     1  UNL1       -0.1908
     18 C         139.0793  144.3666  163.8004 C.1     1  UNL1        0.1004
     19 C         143.5417  143.4407  161.3045 C.2     1  UNL1        0.3466
     20 O         144.2597  142.5975  160.2928 O.2     1  UNL1       -0.2447
     21 O         144.3228  144.2324  162.3110 O.3     1  UNL1       -0.3701
     22 C         144.5894  143.6603  163.6717 C.3     1  UNL1        0.5774
     23 F         144.8560  143.0881  165.0325 F       1  UNL1       -0.1328
     24 F         143.9096  144.8401  164.3009 F       1  UNL1       -0.1328
     25 F         145.2692  142.4805  163.0425 F       1  UNL1       -0.1328
     26 C         138.8621  137.7723  165.1473 C.3     1  UNL1        0.0910
     27 N         139.3567  138.6237  166.2790 N.am    1  UNL1       -0.2888
     28 C         140.5971  139.4500  166.1094 C.2     1  UNL1        0.3043
     29 O         141.3429  139.4249  164.8082 O.2     1  UNL1       -0.2526
     30 N         141.0916  140.3014  167.2411 N.am    1  UNL1       -0.2565
     31 C         142.3320  141.1276  167.0715 C.3     1  UNL1        0.1003
     32 C         142.8265  141.9790  168.2031 C.3     1  UNL1        0.0557
     33 C         142.0807  142.0041  169.5043 C.ar    1  UNL1        0.0700
     34 C         142.3260  142.7407  170.7878 C.ar    1  UNL1        0.2564
     35 O         143.4608  143.6829  171.0606 O.3     1  UNL1       -0.4902
     36 N         141.2373  142.3697  171.7506 N.ar    1  UNL1       -0.0397
     37 O         140.3191  141.4037  171.0622 O.2     1  UNL1       -0.3535
     38 C         140.8403  141.1778  169.6739 C.ar    1  UNL1        0.1736
     39 C         140.3458  140.3265  168.5423 C.3     1  UNL1        0.1620
     40 H         138.8672  138.6402  167.1330 H       1  UNL1        0.1510
     41 H         144.0973  143.8550  170.3948 H       1  UNL1        0.2938
@<TRIPOS>BOND
     1    17    18    3
     2    18    11    1
     3    11    12   ar
     4    12    13   ar
     5    13    10    1
     6    10     9    1
     7     9     1    1
     8     1     2    2
     9     1     3   am
    10     3     4    1
    11     5     4    1
    12     5     6    1
    13     6    26    1
    14    26    27    1
    15    27    28   am
    16    28    29    2
    17    28    30   am
    18    30    31    1
    19    31    32    1
    20    32    33    1
    21    33    34   ar
    22    34    35    1
    23    34    36   ar
    24    36    37   ar
    25    37    38   ar
    26    38    39    1
    27     6     7    1
    28     7     8    1
    29    13    14   ar
    30    14    15   ar
    31    15    19    1
    32    19    20    2
    33    19    21    1
    34    21    22    1
    35    22    23    1
    36    22    24    1
    37    22    25    1
    38    15    16   ar
    39    16    11   ar
    40     8     3    1
    41     7     5    1
    42    39    30    1
    43    38    33   ar
    44    27    40    1
    45    35    41    1
@<TRIPOS>MOLECULE
*****
 41 45 0 0 0
SMALL
GASTEIGER

@<TRIPOS>ATOM
      1 C         141.5744  139.7759  158.3597 C.2     1  UNL1        0.4052
      2 O         140.7908  139.5199  157.1065 O.2     1  UNL1       -0.2262
      3 N         141.0434  139.3129  159.6839 N.am    1  UNL1       -0.2460
      4 C         141.7114  139.4962  161.0144 C.3     1  UNL1        0.0968
      5 C         140.8321  138.8819  162.0630 C.3     1  UNL1        0.0234
      6 C         139.7666  138.1995  162.8687 C.3     1  UNL1        0.0231
      7 C         139.6207  138.3190  161.3806 C.3     1  UNL1        0.0234
      8 C         139.7514  138.5854  159.9102 C.3     1  UNL1        0.0968
      9 O         142.8889  140.4949  158.2885 O.3     1  UNL1       -0.4295
     10 C         142.9235  141.9944  158.2697 C.3     1  UNL1        0.2367
     11 C         141.4787  144.5112  160.9769 C.ar    1  UNL1        0.0685
     12 C         141.6371  143.7413  159.6993 C.ar    1  UNL1        0.0096
     13 C         142.7652  142.7643  159.5473 C.ar    1  UNL1        0.0222
     14 C         143.7348  142.5573  160.6728 C.ar    1  UNL1        0.0058
     15 C         143.5765  143.3272  161.9504 C.ar    1  UNL1        0.0763
     16 C         142.4485  144.3041  162.1024 C.ar    1  UNL1        0.0167
     17 N         139.2227  146.4651  161.2810 N.1     1  UNL1       -0.1908
     18 C         140.3507  145.4881  161.1290 C.1     1  UNL1        0.1004
     19 C         144.5463  143.1202  163.0759 C.2     1  UNL1        0.3466
     20 O         145.5554  142.0128  163.0023 O.2     1  UNL1       -0.2447
     21 O         144.5069  144.0204  164.2750 O.3     1  UNL1       -0.3701
     22 C         144.2594  143.4442  165.6376 C.3     1  UNL1        0.5774
     23 F         144.0118  142.8679  167.0003 F       1  UNL1       -0.1328
     24 F         143.1837  142.5658  165.0707 F       1  UNL1       -0.1328
     25 F         145.3350  144.3226  166.2045 F       1  UNL1       -0.1328
     26 C         139.2357  137.7365  164.1930 C.3     1  UNL1        0.0910
     27 N         139.4623  138.5648  165.4229 N.am    1  UNL1       -0.2888
     28 C         140.8590  138.8347  165.8986 C.2     1  UNL1        0.3043
     29 O         142.0292  138.2764  165.1443 O.2     1  UNL1       -0.2526
     30 N         141.0855  139.6630  167.1285 N.am    1  UNL1       -0.2565
     31 C         142.4822  139.9329  167.6042 C.3     1  UNL1        0.1003
     32 C         142.7087  140.7611  168.8341 C.3     1  UNL1        0.0557
     33 C         141.5385  141.3195  169.5883 C.ar    1  UNL1        0.0700
     34 C         141.4520  142.1643  170.8248 C.ar    1  UNL1        0.2564
     35 O         142.6120  142.6683  171.6312 O.3     1  UNL1       -0.4902
     36 N         140.0018  142.4164  171.1133 N.ar    1  UNL1       -0.0397
     37 O         139.1920  141.7275  170.0552 O.2     1  UNL1       -0.3535
     38 C         140.1418  141.0495  169.1127 C.ar    1  UNL1        0.1736
     39 C         139.9153  140.2213  167.8828 C.3     1  UNL1        0.1620
     40 H         138.6942  138.9312  165.9180 H       1  UNL1        0.1510
     41 H         143.4881  142.4590  171.3732 H       1  UNL1        0.2938
@<TRIPOS>BOND
     1    17    18    3
     2    18    11    1
     3    11    12   ar
     4    12    13   ar
     5    13    10    1
     6    10     9    1
     7     9     1    1
     8     1     2    2
     9     1     3   am
    10     3     4    1
    11     5     4    1
    12     5     6    1
    13     6    26    1
    14    26    27    1
    15    27    28   am
    16    28    29    2
    17    28    30   am
    18    30    31    1
    19    31    32    1
    20    32    33    1
    21    33    34   ar
    22    34    35    1
    23    34    36   ar
    24    36    37   ar
    25    37    38   ar
    26    38    39    1
    27     6     7    1
    28     7     8    1
    29    13    14   ar
    30    14    15   ar
    31    15    19    1
    32    19    20    2
    33    19    21    1
    34    21    22    1
    35    22    23    1
    36    22    24    1
    37    22    25    1
    38    15    16   ar
    39    16    11   ar
    40     8     3    1
    41     7     5    1
    42    39    30    1
    43    38    33   ar
    44    27    40    1
    45    35    41    1
@<TRIPOS>MOLECULE
*****
 41 45 0 0 0
SMALL
GASTEIGER

@<TRIPOS>ATOM
      1 C         144.7216  140.1329  163.9173 C.2     1  UNL1        0.4052
      2 O         145.3181  141.4989  164.0851 O.2     1  UNL1       -0.2262
      3 N         144.2522  139.6802  162.5665 N.am    1  UNL1       -0.2460
      4 C         143.6383  138.3495  162.2467 C.3     1  UNL1        0.0968
      5 C         143.3210  138.3257  160.7808 C.3     1  UNL1        0.0234
      6 C         143.1234  138.5916  159.3179 C.3     1  UNL1        0.0231
      7 C         143.7388  139.6417  160.1946 C.3     1  UNL1        0.0234
      8 C         144.3143  140.4788  161.2982 C.3     1  UNL1        0.0968
      9 O         144.5945  139.2195  165.1004 O.3     1  UNL1       -0.4295
     10 C         143.2562  139.0081  165.7442 C.3     1  UNL1        0.2367
     11 C         140.7966  142.1144  165.9700 C.ar    1  UNL1        0.0685
     12 C         141.5558  140.9450  165.4168 C.ar    1  UNL1        0.0096
     13 C         142.4970  140.1775  166.2974 C.ar    1  UNL1        0.0222
     14 C         142.6788  140.5794  167.7310 C.ar    1  UNL1        0.0058
     15 C         141.9195  141.7488  168.2842 C.ar    1  UNL1        0.0763
     16 C         140.9784  142.5163  167.4037 C.ar    1  UNL1        0.0167
     17 N         138.9144  143.6493  164.2090 N.1     1  UNL1       -0.1908
     18 C         139.8555  142.8819  165.0895 C.1     1  UNL1        0.1004
     19 C         142.1013  142.1507  169.7179 C.2     1  UNL1        0.3466
     20 O         143.2049  143.0926  170.0986 O.2     1  UNL1       -0.2447
     21 O         141.1796  141.6108  170.7709 O.3     1  UNL1       -0.3701
     22 C         139.9041  140.9291  170.3731 C.3     1  UNL1        0.5774
     23 F         138.6284  140.2475  169.9753 F       1  UNL1       -0.1328
     24 F         140.5988  139.6006  170.4219 F       1  UNL1       -0.1328
     25 F         139.2094  142.2577  170.3243 F       1  UNL1       -0.1328
     26 C         142.6541  138.1390  157.9670 C.3     1  UNL1        0.0910
     27 N         143.0103  136.7695  157.4693 N.am    1  UNL1       -0.2888
     28 C         142.0705  136.0337  156.5608 C.2     1  UNL1        0.3043
     29 O         140.7745  136.6674  156.1500 O.2     1  UNL1       -0.2526
     30 N         142.4267  134.6642  156.0631 N.am    1  UNL1       -0.2565
     31 C         141.4869  133.9284  155.1547 C.3     1  UNL1        0.1003
     32 C         141.8431  132.5590  154.6570 C.3     1  UNL1        0.0557
     33 C         143.1391  131.9253  155.0678 C.ar    1  UNL1        0.0700
     34 C         143.7559  130.5980  154.7394 C.ar    1  UNL1        0.2564
     35 O         143.1568  129.5408  153.8599 O.3     1  UNL1       -0.4902
     36 N         145.0769  130.5134  155.4449 N.ar    1  UNL1       -0.0397
     37 O         145.2765  131.7885  156.2094 O.2     1  UNL1       -0.3535
     38 C         144.0789  132.6611  155.9763 C.ar    1  UNL1        0.1736
     39 C         143.7227  134.0305  156.4740 C.3     1  UNL1        0.1620
     40 H         143.8609  136.3535  157.7390 H       1  UNL1        0.1510
     41 H         142.3219  129.6827  153.4591 H       1  UNL1        0.2938
@<TRIPOS>BOND
     1    17    18    3
     2    18    11    1
     3    11    12   ar
     4    12    13   ar
     5    13    10    1
     6    10     9    1
     7     9     1    1
     8     1     2    2
     9     1     3   am
    10     3     4    1
    11     5     4    1
    12     5     6    1
    13     6    26    1
    14    26    27    1
    15    27    28   am
    16    28    29    2
    17    28    30   am
    18    30    31    1
    19    31    32    1
    20    32    33    1
    21    33    34   ar
    22    34    35    1
    23    34    36   ar
    24    36    37   ar
    25    37    38   ar
    26    38    39    1
    27     6     7    1
    28     7     8    1
    29    13    14   ar
    30    14    15   ar
    31    15    19    1
    32    19    20    2
    33    19    21    1
    34    21    22    1
    35    22    23    1
    36    22    24    1
    37    22    25    1
    38    15    16   ar
    39    16    11   ar
    40     8     3    1
    41     7     5    1
    42    39    30    1
    43    38    33   ar
    44    27    40    1
    45    35    41    1
