@<TRIPOS>MOLECULE
*****
 41 45 0 0 0
SMALL
GASTEIGER

@<TRIPOS>ATOM
      1 N         142.4000  136.4813  156.2148 N.ar    1  UNL1       -0.2342
      2 N         141.2479  136.8369  157.1071 N.ar    1  UNL1       -0.1679
      3 C         141.4237  138.2604  157.5460 C.ar    1  UNL1        0.1065
      4 C         142.6845  138.7847  156.9249 C.ar    1  UNL1        0.0860
      5 C         143.3610  140.1212  157.0023 C.ar    1  UNL1        0.1316
      6 N         142.7576  141.2207  157.8250 N.pl3   1  UNL1       -0.3425
      7 N         144.6409  140.3581  156.2569 N.ar    1  UNL1       -0.2093
      8 C         145.2443  139.2585  155.4342 C.ar    1  UNL1        0.2014
      9 N         144.5678  137.9220  155.3568 N.ar    1  UNL1       -0.2050
     10 C         143.2879  137.6851  156.1022 C.ar    1  UNL1        0.1653
     11 H         141.9176  141.0652  158.3143 H       1  UNL1        0.1437
     12 H         143.2017  142.0979  157.8758 H       1  UNL1        0.1437
     13 C         144.6558  131.8006  156.1635 C.2     1  UNL1        0.2492
     14 O         145.3340  132.1132  157.4644 O.2     1  UNL1       -0.2699
     15 N         143.7527  132.8145  155.5259 N.am    1  UNL1       -0.2741
     16 C         143.0745  132.5019  154.2250 C.3     1  UNL1        0.0938
     17 C         142.1715  133.5158  153.5874 C.3     1  UNL1        0.0236
     18 C         141.9467  134.8423  154.2507 C.3     1  UNL1        0.0279
     19 C         142.6248  135.1549  155.5515 C.3     1  UNL1        0.1266
     20 C         143.5279  134.1409  156.1892 C.3     1  UNL1        0.1180
     21 C         144.4786  129.2088  156.1983 C.2     1  UNL1        0.0048
     22 C         144.8806  130.4742  155.5002 C.2     1  UNL1        0.0579
     23 C         140.5008  139.0255  158.4477 C.ar    1  UNL1        0.0197
     24 C         139.3882  139.8438  157.8623 C.ar    1  UNL1        0.0016
     25 C         138.4653  140.6088  158.7639 C.ar    1  UNL1        0.0002
     26 C         138.6550  140.5556  160.2509 C.ar    1  UNL1        0.0045
     27 C         139.7675  139.7373  160.8363 C.ar    1  UNL1        0.0537
     28 C         140.6904  138.9723  159.9346 C.ar    1  UNL1        0.0061
     29 C         139.9572  139.6841  162.3233 C.2     1  UNL1        0.2495
     30 O         141.1446  138.9742  162.9030 O.2     1  UNL1       -0.2698
     31 N         138.9594  140.3408  163.2306 N.am    1  UNL1       -0.2804
     32 H         138.1801  140.8067  162.8501 H       1  UNL1        0.1552
     33 C         139.1491  140.2876  164.7176 C.ar    1  UNL1        0.0505
     34 C         138.4162  139.2622  165.5309 C.ar    1  UNL1        0.0144
     35 C         138.6058  139.2090  167.0179 C.ar    1  UNL1       -0.0030
     36 C         139.5284  140.1810  167.6917 C.ar    1  UNL1       -0.0224
     37 C         140.2612  141.2064  166.8783 C.ar    1  UNL1       -0.0030
     38 C         140.0716  141.2596  165.3913 C.ar    1  UNL1        0.0144
     39 C         139.7180  140.1278  169.1787 C.3     1  UNL1        0.0224
     40 C         141.0693  139.8185  169.7518 C.3     1  UNL1        0.0047
     41 C         138.5564  140.3839  170.0925 C.3     1  UNL1        0.0047
@<TRIPOS>BOND
     1    21    22    2
     2    22    13    1
     3    13    14    2
     4    13    15   am
     5    15    16    1
     6    16    17    1
     7    17    18    1
     8    18    19    1
     9    19     1    1
    10     1     2   ar
    11     2     3   ar
    12     3    23    1
    13    23    24   ar
    14    24    25   ar
    15    25    26   ar
    16    26    27   ar
    17    27    29    1
    18    29    30    2
    19    29    31   am
    20    31    33    1
    21    33    34   ar
    22    34    35   ar
    23    35    36   ar
    24    36    39    1
    25    39    40    1
    26    39    41    1
    27    36    37   ar
    28    37    38   ar
    29    27    28   ar
    30     3     4   ar
    31     4     5   ar
    32     5     6    1
    33     5     7   ar
    34     7     8   ar
    35     8     9   ar
    36     9    10   ar
    37    19    20    1
    38    20    15    1
    39    10     1   ar
    40    28    23   ar
    41    10     4   ar
    42    38    33   ar
    43    31    32    1
    44     6    11    1
    45     6    12    1
@<TRIPOS>MOLECULE
*****
 41 45 0 0 0
SMALL
GASTEIGER

@<TRIPOS>ATOM
      1 N         142.3435  138.6891  156.7658 N.ar    1  UNL1       -0.2342
      2 N         141.3910  139.5101  157.5835 N.ar    1  UNL1       -0.1679
      3 C         142.0282  140.8442  157.8364 C.ar    1  UNL1        0.1065
      4 C         143.3746  140.8477  157.1752 C.ar    1  UNL1        0.0860
      5 C         144.4482  141.8917  157.0901 C.ar    1  UNL1        0.1316
      6 N         144.2534  143.2237  157.7518 N.pl3   1  UNL1       -0.3425
      7 N         145.7168  141.6037  156.3433 N.ar    1  UNL1       -0.2093
      8 C         145.9117  140.2717  155.6816 C.ar    1  UNL1        0.2014
      9 N         144.8380  139.2277  155.7667 N.ar    1  UNL1       -0.2050
     10 C         143.5694  139.5157  156.5135 C.ar    1  UNL1        0.1653
     11 H         143.4208  143.4127  158.2419 H       1  UNL1        0.1437
     12 H         144.9581  143.9089  157.6959 H       1  UNL1        0.1437
     13 C         143.2046  133.5829  157.1963 C.2     1  UNL1        0.2492
     14 O         144.1002  133.8331  158.3733 O.2     1  UNL1       -0.2699
     15 N         142.5415  134.7342  156.5002 N.am    1  UNL1       -0.2741
     16 C         141.6460  134.4840  155.3232 C.3     1  UNL1        0.0938
     17 C         140.9829  135.6354  154.6271 C.3     1  UNL1        0.0236
     18 C         141.2155  137.0371  155.1080 C.3     1  UNL1        0.0279
     19 C         142.1110  137.2874  156.2849 C.3     1  UNL1        0.1266
     20 C         142.7741  136.1359  156.9811 C.3     1  UNL1        0.1180
     21 C         143.9298  131.5517  155.7476 C.2     1  UNL1        0.0048
     22 C         142.9721  132.1812  156.7155 C.2     1  UNL1        0.0579
     23 C         141.4250  141.9761  158.6142 C.ar    1  UNL1        0.0197
     24 C         140.5722  142.9945  157.9171 C.ar    1  UNL1        0.0016
     25 C         139.9689  144.1264  158.6949 C.ar    1  UNL1        0.0002
     26 C         140.2185  144.2401  160.1696 C.ar    1  UNL1        0.0045
     27 C         141.0713  143.2218  160.8666 C.ar    1  UNL1        0.0537
     28 C         141.6745  142.0898  160.0888 C.ar    1  UNL1        0.0061
     29 C         141.3209  143.3354  162.3413 C.2     1  UNL1        0.2495
     30 O         141.5917  144.6770  162.9550 O.2     1  UNL1       -0.2698
     31 N         141.2996  142.1074  163.2024 N.am    1  UNL1       -0.2804
     32 H         141.1219  141.2268  162.7996 H       1  UNL1        0.1552
     33 C         141.5492  142.2210  164.6771 C.ar    1  UNL1        0.0505
     34 C         142.9445  142.0965  165.2134 C.ar    1  UNL1        0.0144
     35 C         143.1941  142.2101  166.6881 C.ar    1  UNL1       -0.0030
     36 C         142.0484  142.4483  167.6266 C.ar    1  UNL1       -0.0224
     37 C         140.6531  142.5728  167.0902 C.ar    1  UNL1       -0.0030
     38 C         140.4035  142.4592  165.6155 C.ar    1  UNL1        0.0144
     39 C         142.2980  142.5619  169.1013 C.3     1  UNL1        0.0224
     40 C         143.5170  141.9312  169.7065 C.3     1  UNL1        0.0047
     41 C         141.3286  143.3063  169.9708 C.3     1  UNL1        0.0047
@<TRIPOS>BOND
     1    21    22    2
     2    22    13    1
     3    13    14    2
     4    13    15   am
     5    15    16    1
     6    16    17    1
     7    17    18    1
     8    18    19    1
     9    19     1    1
    10     1     2   ar
    11     2     3   ar
    12     3    23    1
    13    23    24   ar
    14    24    25   ar
    15    25    26   ar
    16    26    27   ar
    17    27    29    1
    18    29    30    2
    19    29    31   am
    20    31    33    1
    21    33    34   ar
    22    34    35   ar
    23    35    36   ar
    24    36    39    1
    25    39    40    1
    26    39    41    1
    27    36    37   ar
    28    37    38   ar
    29    27    28   ar
    30     3     4   ar
    31     4     5   ar
    32     5     6    1
    33     5     7   ar
    34     7     8   ar
    35     8     9   ar
    36     9    10   ar
    37    19    20    1
    38    20    15    1
    39    10     1   ar
    40    28    23   ar
    41    10     4   ar
    42    38    33   ar
    43    31    32    1
    44     6    11    1
    45     6    12    1
@<TRIPOS>MOLECULE
*****
 41 45 0 0 0
SMALL
GASTEIGER

@<TRIPOS>ATOM
      1 N         142.1523  136.4462  156.6309 N.ar    1  UNL1       -0.2342
      2 N         142.9936  137.2553  157.5730 N.ar    1  UNL1       -0.1679
      3 C         142.2532  138.5221  157.8843 C.ar    1  UNL1        0.1065
      4 C         140.9542  138.4960  157.1346 C.ar    1  UNL1        0.0860
      5 C         139.8202  139.4747  157.0573 C.ar    1  UNL1        0.1316
      6 N         139.8826  140.7576  157.8320 N.pl3   1  UNL1       -0.3425
      7 N         138.6238  139.1704  156.2053 N.ar    1  UNL1       -0.2093
      8 C         138.5614  137.8875  155.4307 C.ar    1  UNL1        0.2014
      9 N         139.6954  136.9088  155.5080 N.ar    1  UNL1       -0.2050
     10 C         140.8919  137.2130  156.3600 C.ar    1  UNL1        0.1653
     11 H         140.6678  140.9573  158.3912 H       1  UNL1        0.1437
     12 H         139.1382  141.4000  157.7813 H       1  UNL1        0.1437
     13 C         144.8383  132.0068  156.9085 C.2     1  UNL1        0.2492
     14 O         145.4683  132.4681  158.1892 O.2     1  UNL1       -0.2699
     15 N         143.8517  132.8860  156.1987 N.am    1  UNL1       -0.2741
     16 C         143.2217  132.4247  154.9180 C.3     1  UNL1        0.0938
     17 C         142.2352  133.3039  154.2083 C.3     1  UNL1        0.0236
     18 C         141.8787  134.6444  154.7793 C.3     1  UNL1        0.0279
     19 C         142.5087  135.1057  156.0599 C.3     1  UNL1        0.1266
     20 C         143.4953  134.2265  156.7697 C.3     1  UNL1        0.1180
     21 C         144.4692  129.4373  156.7996 C.2     1  UNL1        0.0048
     22 C         145.1947  130.6663  156.3376 C.2     1  UNL1        0.0579
     23 C         142.7283  139.6219  158.7869 C.ar    1  UNL1        0.0197
     24 C         143.7267  140.6237  158.2871 C.ar    1  UNL1        0.0016
     25 C         144.2018  141.7236  159.1896 C.ar    1  UNL1        0.0002
     26 C         143.6785  141.8217  160.5920 C.ar    1  UNL1        0.0045
     27 C         142.6802  140.8199  161.0918 C.ar    1  UNL1        0.0537
     28 C         142.2051  139.7201  160.1892 C.ar    1  UNL1        0.0061
     29 C         142.1570  140.9180  162.4941 C.2     1  UNL1        0.2495
     30 O         141.2518  139.8504  163.0333 O.2     1  UNL1       -0.2698
     31 N         142.5389  142.0838  163.3573 N.am    1  UNL1       -0.2804
     32 H         143.1330  142.7846  163.0034 H       1  UNL1        0.1552
     33 C         142.0156  142.1819  164.7596 C.ar    1  UNL1        0.0505
     34 C         140.6961  142.8447  165.0231 C.ar    1  UNL1        0.0144
     35 C         140.1728  142.9428  166.4255 C.ar    1  UNL1       -0.0030
     36 C         140.9691  142.3782  167.5644 C.ar    1  UNL1       -0.0224
     37 C         142.2887  141.7154  167.3008 C.ar    1  UNL1       -0.0030
     38 C         142.8119  141.6173  165.8985 C.ar    1  UNL1        0.0144
     39 C         140.4459  142.4763  168.9667 C.3     1  UNL1        0.0224
     40 C         140.5519  143.7702  169.7180 C.3     1  UNL1        0.0047
     41 C         139.8165  141.2804  169.6177 C.3     1  UNL1        0.0047
@<TRIPOS>BOND
     1    21    22    2
     2    22    13    1
     3    13    14    2
     4    13    15   am
     5    15    16    1
     6    16    17    1
     7    17    18    1
     8    18    19    1
     9    19     1    1
    10     1     2   ar
    11     2     3   ar
    12     3    23    1
    13    23    24   ar
    14    24    25   ar
    15    25    26   ar
    16    26    27   ar
    17    27    29    1
    18    29    30    2
    19    29    31   am
    20    31    33    1
    21    33    34   ar
    22    34    35   ar
    23    35    36   ar
    24    36    39    1
    25    39    40    1
    26    39    41    1
    27    36    37   ar
    28    37    38   ar
    29    27    28   ar
    30     3     4   ar
    31     4     5   ar
    32     5     6    1
    33     5     7   ar
    34     7     8   ar
    35     8     9   ar
    36     9    10   ar
    37    19    20    1
    38    20    15    1
    39    10     1   ar
    40    28    23   ar
    41    10     4   ar
    42    38    33   ar
    43    31    32    1
    44     6    11    1
    45     6    12    1
@<TRIPOS>MOLECULE
*****
 41 45 0 0 0
SMALL
GASTEIGER

@<TRIPOS>ATOM
      1 N         142.3724  142.4682  163.4657 N.ar    1  UNL1       -0.2342
      2 N         143.0993  141.6457  162.4434 N.ar    1  UNL1       -0.1679
      3 C         142.8527  142.2571  161.0961 C.ar    1  UNL1        0.1065
      4 C         141.9732  143.4574  161.2856 C.ar    1  UNL1        0.0860
      5 C         141.4044  144.4483  160.3138 C.ar    1  UNL1        0.1316
      6 N         141.7013  144.3178  158.8493 N.pl3   1  UNL1       -0.3425
      7 N         140.5388  145.5698  160.8066 N.ar    1  UNL1       -0.2093
      8 C         140.2419  145.7003  162.2711 C.ar    1  UNL1        0.2014
      9 N         140.8107  144.7093  163.2429 N.ar    1  UNL1       -0.2050
     10 C         141.6764  143.5879  162.7501 C.ar    1  UNL1        0.1653
     11 H         142.2695  143.5818  158.5259 H       1  UNL1        0.1437
     12 H         141.3279  144.9683  158.2115 H       1  UNL1        0.1437
     13 C         140.0520  140.4216  167.6403 C.2     1  UNL1        0.2492
     14 O         138.9447  139.9038  166.7710 O.2     1  UNL1       -0.2699
     15 N         141.1857  141.1921  167.0314 N.am    1  UNL1       -0.2741
     16 C         142.2931  141.7099  167.9007 C.3     1  UNL1        0.0938
     17 C         143.4268  142.4804  167.2917 C.3     1  UNL1        0.0236
     18 C         143.4532  142.7332  165.8133 C.3     1  UNL1        0.0279
     19 C         142.3460  142.2155  164.9440 C.3     1  UNL1        0.1266
     20 C         141.2121  141.4449  165.5530 C.3     1  UNL1        0.1180
     21 C         138.7472  140.3363  169.8854 C.2     1  UNL1        0.0048
     22 C         140.0256  140.1688  169.1186 C.2     1  UNL1        0.0579
     23 C         143.3909  141.7561  159.7887 C.ar    1  UNL1        0.0197
     24 C         144.4801  142.5120  159.0869 C.ar    1  UNL1        0.0016
     25 C         145.0183  142.0110  157.7795 C.ar    1  UNL1        0.0002
     26 C         144.4675  140.7542  157.1738 C.ar    1  UNL1        0.0045
     27 C         143.3783  139.9983  157.8756 C.ar    1  UNL1        0.0537
     28 C         142.8401  140.4993  159.1830 C.ar    1  UNL1        0.0061
     29 C         142.8274  138.7415  157.2699 C.2     1  UNL1        0.2495
     30 O         141.3657  138.4281  157.3922 O.2     1  UNL1       -0.2698
     31 N         143.7383  137.7979  156.5418 N.am    1  UNL1       -0.2804
     32 H         144.6978  138.0036  156.4615 H       1  UNL1        0.1552
     33 C         143.1874  136.5411  155.9362 C.ar    1  UNL1        0.0505
     34 C         143.0278  135.3101  156.7783 C.ar    1  UNL1        0.0144
     35 C         142.4769  134.0533  156.1727 C.ar    1  UNL1       -0.0030
     36 C         142.0856  134.0273  154.7248 C.ar    1  UNL1       -0.0224
     37 C         142.2453  135.2583  153.8827 C.ar    1  UNL1       -0.0030
     38 C         142.7962  136.5151  154.4883 C.ar    1  UNL1        0.0144
     39 C         141.5348  132.7705  154.1192 C.3     1  UNL1        0.0224
     40 C         141.1221  132.7511  152.6772 C.3     1  UNL1        0.0047
     41 C         141.3965  131.5330  154.9555 C.3     1  UNL1        0.0047
@<TRIPOS>BOND
     1    21    22    2
     2    22    13    1
     3    13    14    2
     4    13    15   am
     5    15    16    1
     6    16    17    1
     7    17    18    1
     8    18    19    1
     9    19     1    1
    10     1     2   ar
    11     2     3   ar
    12     3    23    1
    13    23    24   ar
    14    24    25   ar
    15    25    26   ar
    16    26    27   ar
    17    27    29    1
    18    29    30    2
    19    29    31   am
    20    31    33    1
    21    33    34   ar
    22    34    35   ar
    23    35    36   ar
    24    36    39    1
    25    39    40    1
    26    39    41    1
    27    36    37   ar
    28    37    38   ar
    29    27    28   ar
    30     3     4   ar
    31     4     5   ar
    32     5     6    1
    33     5     7   ar
    34     7     8   ar
    35     8     9   ar
    36     9    10   ar
    37    19    20    1
    38    20    15    1
    39    10     1   ar
    40    28    23   ar
    41    10     4   ar
    42    38    33   ar
    43    31    32    1
    44     6    11    1
    45     6    12    1
@<TRIPOS>MOLECULE
*****
 41 45 0 0 0
SMALL
GASTEIGER

@<TRIPOS>ATOM
      1 N         138.2660  142.9093  156.2088 N.ar    1  UNL1       -0.2342
      2 N         139.2845  142.2769  157.1103 N.ar    1  UNL1       -0.1679
      3 C         140.3127  143.3154  157.4482 C.ar    1  UNL1        0.1065
      4 C         139.9298  144.5896  156.7555 C.ar    1  UNL1        0.0860
      5 C         140.5695  145.9459  156.7234 C.ar    1  UNL1        0.1316
      6 N         141.8345  146.1969  157.4894 N.pl3   1  UNL1       -0.3425
      7 N         139.9442  147.0512  155.9252 N.ar    1  UNL1       -0.2093
      8 C         138.6792  146.8003  155.1592 C.ar    1  UNL1        0.2014
      9 N         138.0395  145.4439  155.1914 N.ar    1  UNL1       -0.2050
     10 C         138.6648  144.3386  155.9895 C.ar    1  UNL1        0.1653
     11 H         142.2449  145.4714  158.0133 H       1  UNL1        0.1437
     12 H         142.2543  147.0871  157.4683 H       1  UNL1        0.1437
     13 C         134.1461  139.7939  156.7758 C.2     1  UNL1        0.2492
     14 O         134.4975  139.5921  158.2200 O.2     1  UNL1       -0.2699
     15 N         135.0003  140.6737  155.9119 N.am    1  UNL1       -0.2741
     16 C         134.6489  140.8755  154.4677 C.3     1  UNL1        0.0938
     17 C         135.5032  141.7553  153.6039 C.3     1  UNL1        0.0236
     18 C         136.7089  142.4332  154.1843 C.3     1  UNL1        0.0279
     19 C         137.0603  142.2314  155.6284 C.3     1  UNL1        0.1266
     20 C         136.2060  141.3516  156.4923 C.3     1  UNL1        0.1180
     21 C         131.9741  138.4045  157.0955 C.2     1  UNL1        0.0048
     22 C         132.9404  139.1161  156.1954 C.2     1  UNL1        0.0579
     23 C         141.5133  143.1149  158.3249 C.ar    1  UNL1        0.0197
     24 C         142.8350  142.7519  157.7152 C.ar    1  UNL1        0.0016
     25 C         144.0355  142.5514  158.5919 C.ar    1  UNL1        0.0002
     26 C         143.9144  142.7139  160.0782 C.ar    1  UNL1        0.0045
     27 C         142.5928  143.0769  160.6877 C.ar    1  UNL1        0.0537
     28 C         141.3923  143.2774  159.8111 C.ar    1  UNL1        0.0061
     29 C         142.4717  143.2394  162.1740 C.2     1  UNL1        0.2495
     30 O         142.7733  144.5636  162.8107 O.2     1  UNL1       -0.2698
     31 N         142.0491  142.0776  163.0235 N.am    1  UNL1       -0.2804
     32 H         141.8512  141.2085  162.6056 H       1  UNL1        0.1552
     33 C         141.9280  142.2401  164.5097 C.ar    1  UNL1        0.0505
     34 C         140.6071  142.6058  165.1191 C.ar    1  UNL1        0.0144
     35 C         140.4860  142.7683  166.6053 C.ar    1  UNL1       -0.0030
     36 C         141.6858  142.5651  167.4823 C.ar    1  UNL1       -0.0224
     37 C         143.0068  142.1994  166.8729 C.ar    1  UNL1       -0.0030
     38 C         143.1279  142.0369  165.3867 C.ar    1  UNL1        0.0144
     39 C         141.5647  142.7276  168.9685 C.3     1  UNL1        0.0224
     40 C         142.5940  142.1211  169.8756 C.3     1  UNL1        0.0047
     41 C         140.4144  143.4966  169.5477 C.3     1  UNL1        0.0047
@<TRIPOS>BOND
     1    21    22    2
     2    22    13    1
     3    13    14    2
     4    13    15   am
     5    15    16    1
     6    16    17    1
     7    17    18    1
     8    18    19    1
     9    19     1    1
    10     1     2   ar
    11     2     3   ar
    12     3    23    1
    13    23    24   ar
    14    24    25   ar
    15    25    26   ar
    16    26    27   ar
    17    27    29    1
    18    29    30    2
    19    29    31   am
    20    31    33    1
    21    33    34   ar
    22    34    35   ar
    23    35    36   ar
    24    36    39    1
    25    39    40    1
    26    39    41    1
    27    36    37   ar
    28    37    38   ar
    29    27    28   ar
    30     3     4   ar
    31     4     5   ar
    32     5     6    1
    33     5     7   ar
    34     7     8   ar
    35     8     9   ar
    36     9    10   ar
    37    19    20    1
    38    20    15    1
    39    10     1   ar
    40    28    23   ar
    41    10     4   ar
    42    38    33   ar
    43    31    32    1
    44     6    11    1
    45     6    12    1
@<TRIPOS>MOLECULE
*****
 41 45 0 0 0
SMALL
GASTEIGER

@<TRIPOS>ATOM
      1 N         142.3375  137.4078  157.0427 N.ar    1  UNL1       -0.2342
      2 N         141.4348  138.0118  158.0773 N.ar    1  UNL1       -0.1679
      3 C         141.8925  139.4182  158.3275 C.ar    1  UNL1        0.1065
      4 C         143.0780  139.6834  157.4476 C.ar    1  UNL1        0.0860
      5 C         143.9425  140.8957  157.2668 C.ar    1  UNL1        0.1316
      6 N         143.6675  142.1382  158.0609 N.pl3   1  UNL1       -0.3425
      7 N         145.0821  140.8655  156.2920 N.ar    1  UNL1       -0.2093
      8 C         145.3572  139.6230  155.4979 C.ar    1  UNL1        0.2014
      9 N         144.4926  138.4107  155.6787 N.ar    1  UNL1       -0.2050
     10 C         143.3530  138.4409  156.6535 C.ar    1  UNL1        0.1653
     11 H         142.9195  142.1580  158.7007 H       1  UNL1        0.1437
     12 H         144.2350  142.9339  157.9422 H       1  UNL1        0.1437
     13 C         143.9104  132.4554  157.0350 C.2     1  UNL1        0.2492
     14 O         144.8888  132.7645  158.1292 O.2     1  UNL1       -0.2699
     15 N         143.0280  133.5389  156.4898 N.am    1  UNL1       -0.2741
     16 C         142.0496  133.2299  155.3957 C.3     1  UNL1        0.0938
     17 C         141.1672  134.3135  154.8505 C.3     1  UNL1        0.0236
     18 C         141.2632  135.7061  155.3995 C.3     1  UNL1        0.0279
     19 C         142.2415  136.0152  156.4937 C.3     1  UNL1        0.1266
     20 C         143.1240  134.9315  157.0389 C.3     1  UNL1        0.1180
     21 C         144.8694  130.5511  155.5503 C.2     1  UNL1        0.0048
     22 C         143.8145  131.0628  156.4860 C.2     1  UNL1        0.0579
     23 C         141.2734  140.3890  159.2889 C.ar    1  UNL1        0.0197
     24 C         140.3453  141.4545  158.7854 C.ar    1  UNL1        0.0016
     25 C         139.7261  142.4253  159.7468 C.ar    1  UNL1        0.0002
     26 C         140.0350  142.3306  161.2116 C.ar    1  UNL1        0.0045
     27 C         140.9631  141.2651  161.7150 C.ar    1  UNL1        0.0537
     28 C         141.5822  140.2943  160.7536 C.ar    1  UNL1        0.0061
     29 C         141.2720  141.1704  163.1798 C.2     1  UNL1        0.2495
     30 O         141.9020  142.3316  163.8900 O.2     1  UNL1       -0.2698
     31 N         140.9508  139.9144  163.9343 N.am    1  UNL1       -0.2804
     32 H         140.5373  139.1522  163.4682 H       1  UNL1        0.1552
     33 C         141.2597  139.8197  165.3991 C.ar    1  UNL1        0.0505
     34 C         142.5738  139.2570  165.8537 C.ar    1  UNL1        0.0144
     35 C         142.8827  139.1623  167.3184 C.ar    1  UNL1       -0.0030
     36 C         141.8776  139.6303  168.3287 C.ar    1  UNL1       -0.0224
     37 C         140.5635  140.1930  167.8742 C.ar    1  UNL1       -0.0030
     38 C         140.2546  140.2877  166.4094 C.ar    1  UNL1        0.0144
     39 C         142.1865  139.5356  169.7935 C.3     1  UNL1        0.0224
     40 C         141.8304  140.6685  170.7099 C.3     1  UNL1        0.0047
     41 C         142.8515  138.3080  170.3419 C.3     1  UNL1        0.0047
@<TRIPOS>BOND
     1    21    22    2
     2    22    13    1
     3    13    14    2
     4    13    15   am
     5    15    16    1
     6    16    17    1
     7    17    18    1
     8    18    19    1
     9    19     1    1
    10     1     2   ar
    11     2     3   ar
    12     3    23    1
    13    23    24   ar
    14    24    25   ar
    15    25    26   ar
    16    26    27   ar
    17    27    29    1
    18    29    30    2
    19    29    31   am
    20    31    33    1
    21    33    34   ar
    22    34    35   ar
    23    35    36   ar
    24    36    39    1
    25    39    40    1
    26    39    41    1
    27    36    37   ar
    28    37    38   ar
    29    27    28   ar
    30     3     4   ar
    31     4     5   ar
    32     5     6    1
    33     5     7   ar
    34     7     8   ar
    35     8     9   ar
    36     9    10   ar
    37    19    20    1
    38    20    15    1
    39    10     1   ar
    40    28    23   ar
    41    10     4   ar
    42    38    33   ar
    43    31    32    1
    44     6    11    1
    45     6    12    1
@<TRIPOS>MOLECULE
*****
 41 45 0 0 0
SMALL
GASTEIGER

@<TRIPOS>ATOM
      1 N         141.5885  139.3839  162.8136 N.ar    1  UNL1       -0.2342
      2 N         142.5078  139.2597  161.6349 N.ar    1  UNL1       -0.1679
      3 C         141.6678  139.2364  160.3924 C.ar    1  UNL1        0.1065
      4 C         140.2293  139.3463  160.8032 C.ar    1  UNL1        0.0860
      5 C         138.9578  139.3751  160.0080 C.ar    1  UNL1        0.1316
      6 N         139.0068  139.2840  158.5116 N.pl3   1  UNL1       -0.3425
      7 N         137.6373  139.4951  160.7092 N.ar    1  UNL1       -0.2093
      8 C         137.5882  139.5863  162.2057 C.ar    1  UNL1        0.2014
      9 N         138.8598  139.5574  163.0009 N.ar    1  UNL1       -0.2050
     10 C         140.1803  139.4374  162.2996 C.ar    1  UNL1        0.1653
     11 H         139.8735  139.2052  158.0513 H       1  UNL1        0.1437
     12 H         138.1722  139.3029  157.9897 H       1  UNL1        0.1437
     13 C         141.5201  141.7861  167.4206 C.2     1  UNL1        0.2492
     14 O         140.6543  142.8669  166.8442 O.2     1  UNL1       -0.2699
     15 N         141.9701  140.6452  166.5571 N.am    1  UNL1       -0.2741
     16 C         142.8359  139.5644  167.1335 C.3     1  UNL1        0.0938
     17 C         143.2859  138.4234  166.2700 C.3     1  UNL1        0.0236
     18 C         142.8700  138.3633  164.8300 C.3     1  UNL1        0.0279
     19 C         142.0043  139.4440  164.2536 C.3     1  UNL1        0.1266
     20 C         141.5543  140.5850  165.1172 C.3     1  UNL1        0.1180
     21 C         143.2402  142.4836  169.2386 C.2     1  UNL1        0.0048
     22 C         141.9359  141.8463  168.8606 C.2     1  UNL1        0.0579
     23 C         142.1768  139.1232  158.9860 C.ar    1  UNL1        0.0197
     24 C         142.3572  140.3570  158.1520 C.ar    1  UNL1        0.0016
     25 C         142.8662  140.2437  156.7455 C.ar    1  UNL1        0.0002
     26 C         143.1949  138.8968  156.1730 C.ar    1  UNL1        0.0045
     27 C         143.0146  137.6631  157.0070 C.ar    1  UNL1        0.0537
     28 C         142.5055  137.7764  158.4134 C.ar    1  UNL1        0.0061
     29 C         143.3433  136.3162  156.4345 C.2     1  UNL1        0.2495
     30 O         143.7972  136.1972  155.0098 O.2     1  UNL1       -0.2698
     31 N         143.2180  135.0882  157.2867 N.am    1  UNL1       -0.2804
     32 H         142.9200  135.1662  158.2218 H       1  UNL1        0.1552
     33 C         143.5467  133.7413  156.7142 C.ar    1  UNL1        0.0505
     34 C         142.7364  133.1912  155.5780 C.ar    1  UNL1        0.0144
     35 C         143.0651  131.8443  155.0055 C.ar    1  UNL1       -0.0030
     36 C         144.2040  131.0474  155.5691 C.ar    1  UNL1       -0.0224
     37 C         145.0143  131.5974  156.7053 C.ar    1  UNL1       -0.0030
     38 C         144.6856  132.9443  157.2778 C.ar    1  UNL1        0.0144
     39 C         144.5327  129.7005  154.9966 C.3     1  UNL1        0.0224
     40 C         144.6694  128.5132  155.9032 C.3     1  UNL1        0.0047
     41 C         144.7247  129.5408  153.5176 C.3     1  UNL1        0.0047
@<TRIPOS>BOND
     1    21    22    2
     2    22    13    1
     3    13    14    2
     4    13    15   am
     5    15    16    1
     6    16    17    1
     7    17    18    1
     8    18    19    1
     9    19     1    1
    10     1     2   ar
    11     2     3   ar
    12     3    23    1
    13    23    24   ar
    14    24    25   ar
    15    25    26   ar
    16    26    27   ar
    17    27    29    1
    18    29    30    2
    19    29    31   am
    20    31    33    1
    21    33    34   ar
    22    34    35   ar
    23    35    36   ar
    24    36    39    1
    25    39    40    1
    26    39    41    1
    27    36    37   ar
    28    37    38   ar
    29    27    28   ar
    30     3     4   ar
    31     4     5   ar
    32     5     6    1
    33     5     7   ar
    34     7     8   ar
    35     8     9   ar
    36     9    10   ar
    37    19    20    1
    38    20    15    1
    39    10     1   ar
    40    28    23   ar
    41    10     4   ar
    42    38    33   ar
    43    31    32    1
    44     6    11    1
    45     6    12    1
@<TRIPOS>MOLECULE
*****
 41 45 0 0 0
SMALL
GASTEIGER

@<TRIPOS>ATOM
      1 N         139.6032  140.9562  163.3049 N.ar    1  UNL1       -0.2342
      2 N         139.8982  140.1132  162.0998 N.ar    1  UNL1       -0.1679
      3 C         139.9488  141.0166  160.9034 C.ar    1  UNL1        0.1065
      4 C         139.6850  142.4179  161.3691 C.ar    1  UNL1        0.0860
      5 C         139.6117  143.7230  160.6335 C.ar    1  UNL1        0.1316
      6 N         139.8253  143.7604  159.1492 N.pl3   1  UNL1       -0.3425
      7 N         139.3248  144.9908  161.3820 N.ar    1  UNL1       -0.2093
      8 C         139.1113  144.9534  162.8663 C.ar    1  UNL1        0.2014
      9 N         139.1845  143.6483  163.6019 N.ar    1  UNL1       -0.2050
     10 C         139.4714  142.3805  162.8534 C.ar    1  UNL1        0.1653
     11 H         140.0136  142.9283  158.6579 H       1  UNL1        0.1437
     12 H         139.7772  144.6170  158.6664 H       1  UNL1        0.1437
     13 C         141.4628  140.5674  168.1413 C.2     1  UNL1        0.2492
     14 O         142.6704  141.3620  167.7409 O.2     1  UNL1       -0.2699
     15 N         140.3941  140.2672  167.1325 N.am    1  UNL1       -0.2741
     16 C         139.1866  139.4726  167.5329 C.3     1  UNL1        0.0938
     17 C         138.1179  139.1725  166.5240 C.3     1  UNL1        0.0236
     18 C         138.2568  139.6670  165.1147 C.3     1  UNL1        0.0279
     19 C         139.4643  140.4616  164.7142 C.3     1  UNL1        0.1266
     20 C         140.5330  140.7618  165.7231 C.3     1  UNL1        0.1180
     21 C         142.2683  139.0330  170.0771 C.2     1  UNL1        0.0048
     22 C         141.3239  140.0728  169.5506 C.2     1  UNL1        0.0579
     23 C         140.2162  140.5931  159.4895 C.ar    1  UNL1        0.0197
     24 C         139.1007  140.0524  158.6448 C.ar    1  UNL1        0.0016
     25 C         139.3681  139.6289  157.2309 C.ar    1  UNL1        0.0002
     26 C         140.7509  139.7461  156.6616 C.ar    1  UNL1        0.0045
     27 C         141.8663  140.2868  157.5062 C.ar    1  UNL1        0.0537
     28 C         141.5989  140.7103  158.9202 C.ar    1  UNL1        0.0061
     29 C         143.2491  140.4041  156.9370 C.2     1  UNL1        0.2495
     30 O         144.1179  139.1869  156.8203 O.2     1  UNL1       -0.2698
     31 N         143.7632  141.7385  156.4844 N.am    1  UNL1       -0.2804
     32 H         143.1931  142.5375  156.5609 H       1  UNL1        0.1552
     33 C         145.1461  141.8558  155.9151 C.ar    1  UNL1        0.0505
     34 C         145.3810  141.5976  154.4563 C.ar    1  UNL1        0.0144
     35 C         146.7638  141.7148  153.8870 C.ar    1  UNL1       -0.0030
     36 C         147.9117  142.0902  154.7765 C.ar    1  UNL1       -0.0224
     37 C         147.6768  142.3484  156.2353 C.ar    1  UNL1       -0.0030
     38 C         146.2940  142.2312  156.8046 C.ar    1  UNL1        0.0144
     39 C         149.2945  142.2074  154.2072 C.3     1  UNL1        0.0224
     40 C         150.4728  141.7096  154.9907 C.3     1  UNL1        0.0047
     41 C         149.4991  142.8225  152.8545 C.3     1  UNL1        0.0047
@<TRIPOS>BOND
     1    21    22    2
     2    22    13    1
     3    13    14    2
     4    13    15   am
     5    15    16    1
     6    16    17    1
     7    17    18    1
     8    18    19    1
     9    19     1    1
    10     1     2   ar
    11     2     3   ar
    12     3    23    1
    13    23    24   ar
    14    24    25   ar
    15    25    26   ar
    16    26    27   ar
    17    27    29    1
    18    29    30    2
    19    29    31   am
    20    31    33    1
    21    33    34   ar
    22    34    35   ar
    23    35    36   ar
    24    36    39    1
    25    39    40    1
    26    39    41    1
    27    36    37   ar
    28    37    38   ar
    29    27    28   ar
    30     3     4   ar
    31     4     5   ar
    32     5     6    1
    33     5     7   ar
    34     7     8   ar
    35     8     9   ar
    36     9    10   ar
    37    19    20    1
    38    20    15    1
    39    10     1   ar
    40    28    23   ar
    41    10     4   ar
    42    38    33   ar
    43    31    32    1
    44     6    11    1
    45     6    12    1
@<TRIPOS>MOLECULE
*****
 41 45 0 0 0
SMALL
GASTEIGER

@<TRIPOS>ATOM
      1 N         139.5458  144.5386  156.1831 N.ar    1  UNL1       -0.2342
      2 N         140.4844  143.9630  157.2018 N.ar    1  UNL1       -0.1679
      3 C         139.8711  142.7034  157.7376 C.ar    1  UNL1        0.1065
      4 C         138.5534  142.5005  157.0502 C.ar    1  UNL1        0.0860
      5 C         137.5107  141.4294  157.1749 C.ar    1  UNL1        0.1316
      6 N         137.7118  140.2952  158.1357 N.pl3   1  UNL1       -0.3425
      7 N         136.2669  141.4927  156.3389 N.ar    1  UNL1       -0.2093
      8 C         136.0658  142.6269  155.3782 C.ar    1  UNL1        0.2014
      9 N         137.1086  143.6979  155.2534 N.ar    1  UNL1       -0.2050
     10 C         138.3523  143.6347  156.0894 C.ar    1  UNL1        0.1653
     11 H         138.5281  140.2537  158.6844 H       1  UNL1        0.1437
     12 H         137.0274  139.5922  158.2175 H       1  UNL1        0.1437
     13 C         138.8489  149.6541  155.5949 C.2     1  UNL1        0.2492
     14 O         138.0671  149.6947  156.8744 O.2     1  UNL1       -0.2699
     15 N         139.4140  148.3550  155.1022 N.am    1  UNL1       -0.2741
     16 C         140.1958  148.3143  153.8227 C.3     1  UNL1        0.0938
     17 C         140.7609  147.0151  153.3300 C.3     1  UNL1        0.0236
     18 C         140.5442  145.7566  154.1168 C.3     1  UNL1        0.0279
     19 C         139.7625  145.7971  155.3963 C.3     1  UNL1        0.1266
     20 C         139.1973  147.0964  155.8890 C.3     1  UNL1        0.1180
     21 C         138.4252  152.1944  155.2521 C.2     1  UNL1        0.0048
     22 C         139.0656  150.9126  154.8081 C.2     1  UNL1        0.0579
     23 C         140.4702  141.8044  158.7782 C.ar    1  UNL1        0.0197
     24 C         141.4676  140.7569  158.3803 C.ar    1  UNL1        0.0016
     25 C         142.0667  139.8580  159.4209 C.ar    1  UNL1        0.0002
     26 C         141.6686  140.0064  160.8595 C.ar    1  UNL1        0.0045
     27 C         140.6713  141.0538  161.2574 C.ar    1  UNL1        0.0537
     28 C         140.0722  141.9528  160.2167 C.ar    1  UNL1        0.0061
     29 C         140.2732  141.2023  162.6959 C.2     1  UNL1        0.2495
     30 O         138.8927  141.6718  163.0475 O.2     1  UNL1       -0.2698
     31 N         141.2557  140.8812  163.7830 N.am    1  UNL1       -0.2804
     32 H         142.1618  140.5730  163.5523 H       1  UNL1        0.1552
     33 C         140.8575  141.0296  165.2216 C.ar    1  UNL1        0.0505
     34 C         140.2481  139.8714  165.9544 C.ar    1  UNL1        0.0144
     35 C         139.8499  140.0199  167.3930 C.ar    1  UNL1       -0.0030
     36 C         140.0613  141.3265  168.0987 C.ar    1  UNL1       -0.0224
     37 C         140.6707  142.4847  167.3658 C.ar    1  UNL1       -0.0030
     38 C         141.0689  142.3362  165.9273 C.ar    1  UNL1        0.0144
     39 C         139.6631  141.4749  169.5373 C.3     1  UNL1        0.0224
     40 C         140.0679  142.6983  170.3051 C.3     1  UNL1        0.0047
     41 C         138.8602  140.4000  170.2080 C.3     1  UNL1        0.0047
@<TRIPOS>BOND
     1    21    22    2
     2    22    13    1
     3    13    14    2
     4    13    15   am
     5    15    16    1
     6    16    17    1
     7    17    18    1
     8    18    19    1
     9    19     1    1
    10     1     2   ar
    11     2     3   ar
    12     3    23    1
    13    23    24   ar
    14    24    25   ar
    15    25    26   ar
    16    26    27   ar
    17    27    29    1
    18    29    30    2
    19    29    31   am
    20    31    33    1
    21    33    34   ar
    22    34    35   ar
    23    35    36   ar
    24    36    39    1
    25    39    40    1
    26    39    41    1
    27    36    37   ar
    28    37    38   ar
    29    27    28   ar
    30     3     4   ar
    31     4     5   ar
    32     5     6    1
    33     5     7   ar
    34     7     8   ar
    35     8     9   ar
    36     9    10   ar
    37    19    20    1
    38    20    15    1
    39    10     1   ar
    40    28    23   ar
    41    10     4   ar
    42    38    33   ar
    43    31    32    1
    44     6    11    1
    45     6    12    1
