@<TRIPOS>MOLECULE
*****
 37 41 0 0 0
SMALL
GASTEIGER

@<TRIPOS>ATOM
      1 N         141.8942  144.2854  161.8855 N.3     1  UNL1       -0.2602
      2 C         140.6172  143.8814  162.5608 C.3     1  UNL1        0.1370
      3 C         139.8307  144.7136  163.5298 C.3     1  UNL1        0.0468
      4 C         138.6299  143.9207  163.9536 C.3     1  UNL1        0.0957
      5 N         138.6743  142.5986  163.2465 N.am    1  UNL1       -0.2743
      6 C         139.9025  142.5743  162.3858 C.2     1  UNL1        0.2404
      7 O         140.3393  141.4416  161.5047 O.2     1  UNL1       -0.2734
      8 C         137.6673  141.4945  163.3773 C.3     1  UNL1        0.1202
      9 C         138.0751  140.1721  163.9560 C.ar    1  UNL1       -0.0023
     10 C         138.0635  139.9681  165.4419 C.ar    1  UNL1       -0.0026
     11 C         138.4713  138.6456  166.0207 C.ar    1  UNL1       -0.0003
     12 C         138.8907  137.5271  165.1133 C.ar    1  UNL1       -0.0000
     13 C         138.9022  137.7312  163.6273 C.ar    1  UNL1       -0.0003
     14 C         138.4944  139.0537  163.0486 C.ar    1  UNL1       -0.0026
     15 C         143.1331  144.5147  162.6996 C.3     1  UNL1        0.1187
     16 N         144.6121  142.8939  164.2262 N.ar    1  UNL1       -0.3070
     17 C         145.5740  141.7737  163.9621 C.ar    1  UNL1        0.1786
     18 N         145.6698  141.5854  162.4770 N.ar    1  UNL1       -0.2226
     19 C         144.7670  142.5893  161.8233 C.ar    1  UNL1        0.1147
     20 C         144.1133  143.3980  162.9043 C.ar    1  UNL1        0.0741
     21 C         144.2181  143.4181  165.5753 C.3     1  UNL1        0.1340
     22 C         140.9960  141.3498  167.9396 C.ar    1  UNL1        0.0684
     23 C         140.7458  141.7408  166.5133 C.ar    1  UNL1        0.0100
     24 C         141.8198  142.4303  165.7252 C.ar    1  UNL1       -0.0017
     25 C         143.1440  142.7287  166.3634 C.ar    1  UNL1        0.0005
     26 C         143.3942  142.3376  167.7897 C.ar    1  UNL1       -0.0017
     27 C         142.3202  141.6482  168.5778 C.ar    1  UNL1        0.0100
     28 N         138.8479  139.9709  169.5159 N.1     1  UNL1       -0.1908
     29 C         139.9219  140.6604  168.7277 C.1     1  UNL1        0.1004
     30 C         141.9323  144.4600  160.3962 C.3     1  UNL1        0.0902
     31 C         140.8309  145.2030  159.6998 C.3     1  UNL1        0.0898
     32 N         140.9355  145.4967  158.2326 N.3     1  UNL1       -0.2672
     33 C         139.8960  146.3446  157.5614 C.3     1  UNL1        0.1047
     34 C         140.0006  146.6383  156.0942 C.3     1  UNL1        0.1595
     35 O         141.1448  146.0840  155.2980 O.3     1  UNL1       -0.3508
     36 C         142.1843  145.2361  155.9692 C.3     1  UNL1        0.1595
     37 C         142.0796  144.9424  157.4365 C.3     1  UNL1        0.1047
@<TRIPOS>BOND
     1    28    29    3
     2    29    22    1
     3    22    23   ar
     4    23    24   ar
     5    24    25   ar
     6    25    21    1
     7    21    16    1
     8    16    17   ar
     9    17    18   ar
    10    18    19   ar
    11    19    20   ar
    12    20    15    1
    13    15     1    1
    14     1    30    1
    15    30    31    1
    16    31    32    1
    17    32    33    1
    18    33    34    1
    19    34    35    1
    20    35    36    1
    21    36    37    1
    22     2     1    1
    23     2     3    1
    24     3     4    1
    25     4     5    1
    26     5     8    1
    27     8     9    1
    28     9    10   ar
    29    10    11   ar
    30    11    12   ar
    31    12    13   ar
    32    13    14   ar
    33     5     6   am
    34     6     7    2
    35    25    26   ar
    36    26    27   ar
    37    27    22   ar
    38    20    16   ar
    39    37    32    1
    40     6     2    1
    41    14     9   ar
@<TRIPOS>MOLECULE
*****
 37 41 0 0 0
SMALL
GASTEIGER

@<TRIPOS>ATOM
      1 N         143.4653  141.5335  161.8796 N.3     1  UNL1       -0.2602
      2 C         142.6800  141.2769  163.1316 C.3     1  UNL1        0.1370
      3 C         141.2138  141.5314  163.3205 C.3     1  UNL1        0.0468
      4 C         140.8507  141.1326  164.7202 C.3     1  UNL1        0.0957
      5 N         142.0924  140.6316  165.3963 N.am    1  UNL1       -0.2743
      6 C         143.2229  140.7208  164.4145 C.2     1  UNL1        0.2404
      7 O         144.6465  140.3236  164.6708 O.2     1  UNL1       -0.2734
      8 C         142.1869  140.1295  166.8066 C.3     1  UNL1        0.1202
      9 C         141.3424  140.7478  167.8811 C.ar    1  UNL1       -0.0023
     10 C         140.2379  139.9557  168.5157 C.ar    1  UNL1       -0.0026
     11 C         139.3933  140.5739  169.5902 C.ar    1  UNL1       -0.0003
     12 C         139.6531  141.9843  170.0300 C.ar    1  UNL1       -0.0000
     13 C         140.7575  142.7764  169.3953 C.ar    1  UNL1       -0.0003
     14 C         141.6022  142.1581  168.3208 C.ar    1  UNL1       -0.0026
     15 C         143.6307  140.4443  160.8616 C.3     1  UNL1        0.1187
     16 N         141.6045  138.8494  160.1575 N.ar    1  UNL1       -0.3070
     17 C         140.5827  138.8547  159.0594 C.ar    1  UNL1        0.1786
     18 N         140.8244  140.0652  158.2071 N.ar    1  UNL1       -0.2226
     19 C         141.9957  140.8080  158.7785 C.ar    1  UNL1        0.1147
     20 C         142.4778  140.0566  159.9839 C.ar    1  UNL1        0.0741
     21 C         141.7309  137.8180  161.2393 C.3     1  UNL1        0.1340
     22 C         139.0541  138.0064  164.8516 C.ar    1  UNL1        0.0684
     23 C         138.5593  138.5014  163.5249 C.ar    1  UNL1        0.0100
     24 C         139.4516  138.4386  162.3208 C.ar    1  UNL1       -0.0017
     25 C         140.8386  137.8808  162.4434 C.ar    1  UNL1        0.0005
     26 C         141.3334  137.3859  163.7701 C.ar    1  UNL1       -0.0017
     27 C         140.4411  137.4487  164.9742 C.ar    1  UNL1        0.0100
     28 N         137.2695  138.1320  167.2599 N.1     1  UNL1       -0.1908
     29 C         138.1618  138.0692  166.0558 C.1     1  UNL1        0.1004
     30 C         144.0851  142.8793  161.6457 C.3     1  UNL1        0.0902
     31 C         143.4782  144.1027  162.2663 C.3     1  UNL1        0.0898
     32 N         142.1844  144.6480  161.7386 N.3     1  UNL1       -0.2672
     33 C         141.8423  144.4942  160.2862 C.3     1  UNL1        0.1047
     34 C         140.5484  145.0395  159.7586 C.3     1  UNL1        0.1595
     35 O         139.5965  145.7388  160.6833 O.3     1  UNL1       -0.3508
     36 C         139.9386  145.8927  162.1357 C.3     1  UNL1        0.1595
     37 C         141.2325  145.3472  162.6633 C.3     1  UNL1        0.1047
@<TRIPOS>BOND
     1    28    29    3
     2    29    22    1
     3    22    23   ar
     4    23    24   ar
     5    24    25   ar
     6    25    21    1
     7    21    16    1
     8    16    17   ar
     9    17    18   ar
    10    18    19   ar
    11    19    20   ar
    12    20    15    1
    13    15     1    1
    14     1    30    1
    15    30    31    1
    16    31    32    1
    17    32    33    1
    18    33    34    1
    19    34    35    1
    20    35    36    1
    21    36    37    1
    22     2     1    1
    23     2     3    1
    24     3     4    1
    25     4     5    1
    26     5     8    1
    27     8     9    1
    28     9    10   ar
    29    10    11   ar
    30    11    12   ar
    31    12    13   ar
    32    13    14   ar
    33     5     6   am
    34     6     7    2
    35    25    26   ar
    36    26    27   ar
    37    27    22   ar
    38    20    16   ar
    39    37    32    1
    40     6     2    1
    41    14     9   ar
@<TRIPOS>MOLECULE
*****
 37 41 0 0 0
SMALL
GASTEIGER

@<TRIPOS>ATOM
      1 N         142.8852  142.2091  160.7882 N.3     1  UNL1       -0.2602
      2 C         143.5566  142.2272  162.1294 C.3     1  UNL1        0.1370
      3 C         145.0033  141.9332  162.3953 C.3     1  UNL1        0.0468
      4 C         145.2400  142.0669  163.8705 C.3     1  UNL1        0.0957
      5 N         143.9396  142.4435  164.5163 N.am    1  UNL1       -0.2743
      6 C         142.8993  142.5426  163.4403 C.2     1  UNL1        0.2404
      7 O         141.4551  142.8952  163.6402 O.2     1  UNL1       -0.2734
      8 C         143.7185  142.6795  165.9810 C.3     1  UNL1        0.1202
      9 C         142.7680  141.8071  166.7462 C.ar    1  UNL1       -0.0023
     10 C         141.8358  142.4152  167.7517 C.ar    1  UNL1       -0.0026
     11 C         140.8852  141.5427  168.5169 C.ar    1  UNL1       -0.0003
     12 C         140.8670  140.0622  168.2766 C.ar    1  UNL1       -0.0000
     13 C         141.7993  139.4541  167.2711 C.ar    1  UNL1       -0.0003
     14 C         142.7498  140.3265  166.5059 C.ar    1  UNL1       -0.0026
     15 C         142.7757  140.9244  160.0217 C.3     1  UNL1        0.1187
     16 N         140.7782  139.5190  161.1079 N.ar    1  UNL1       -0.3070
     17 C         139.4999  138.9234  160.5966 C.ar    1  UNL1        0.1786
     18 N         139.3969  139.2336  159.1326 N.ar    1  UNL1       -0.2226
     19 C         140.6116  140.0209  158.7390 C.ar    1  UNL1        0.1147
     20 C         141.4652  140.1973  159.9598 C.ar    1  UNL1        0.0741
     21 C         141.2811  139.4487  162.5193 C.3     1  UNL1        0.1340
     22 C         138.4377  138.5035  165.8766 C.ar    1  UNL1        0.0684
     23 C         139.2478  137.4081  165.2490 C.ar    1  UNL1        0.0100
     24 C         140.1956  137.7232  164.1299 C.ar    1  UNL1       -0.0017
     25 C         140.3333  139.1336  163.6384 C.ar    1  UNL1        0.0005
     26 C         139.5232  140.2290  164.2660 C.ar    1  UNL1       -0.0017
     27 C         138.5754  139.9139  165.3851 C.ar    1  UNL1        0.0100
     28 N         136.5421  137.8733  168.1148 N.1     1  UNL1       -0.1908
     29 C         137.4899  138.1884  166.9957 C.1     1  UNL1        0.1004
     30 C         142.3234  143.4756  160.2136 C.3     1  UNL1        0.0902
     31 C         140.8684  143.5572  159.8582 C.3     1  UNL1        0.0898
     32 N         139.8441  143.7654  160.9341 N.3     1  UNL1       -0.2672
     33 C         138.8229  142.7028  161.2132 C.3     1  UNL1        0.1047
     34 C         137.7987  142.9111  162.2891 C.3     1  UNL1        0.1595
     35 O         137.7957  144.1819  163.0859 O.3     1  UNL1       -0.3508
     36 C         138.8169  145.2445  162.8068 C.3     1  UNL1        0.1595
     37 C         139.8412  145.0363  161.7308 C.3     1  UNL1        0.1047
@<TRIPOS>BOND
     1    28    29    3
     2    29    22    1
     3    22    23   ar
     4    23    24   ar
     5    24    25   ar
     6    25    21    1
     7    21    16    1
     8    16    17   ar
     9    17    18   ar
    10    18    19   ar
    11    19    20   ar
    12    20    15    1
    13    15     1    1
    14     1    30    1
    15    30    31    1
    16    31    32    1
    17    32    33    1
    18    33    34    1
    19    34    35    1
    20    35    36    1
    21    36    37    1
    22     2     1    1
    23     2     3    1
    24     3     4    1
    25     4     5    1
    26     5     8    1
    27     8     9    1
    28     9    10   ar
    29    10    11   ar
    30    11    12   ar
    31    12    13   ar
    32    13    14   ar
    33     5     6   am
    34     6     7    2
    35    25    26   ar
    36    26    27   ar
    37    27    22   ar
    38    20    16   ar
    39    37    32    1
    40     6     2    1
    41    14     9   ar
@<TRIPOS>MOLECULE
*****
 37 41 0 0 0
SMALL
GASTEIGER

@<TRIPOS>ATOM
      1 N         141.7544  142.4152  160.0956 N.3     1  UNL1       -0.2602
      2 C         142.5977  142.6655  161.3105 C.3     1  UNL1        0.1370
      3 C         143.9711  143.2686  161.3216 C.3     1  UNL1        0.0468
      4 C         144.4379  143.3325  162.7457 C.3     1  UNL1        0.0957
      5 N         143.3530  142.7689  163.6148 N.am    1  UNL1       -0.2743
      6 C         142.2157  142.3567  162.7278 C.2     1  UNL1        0.2404
      7 O         140.9234  141.7433  163.1790 O.2     1  UNL1       -0.2734
      8 C         143.3975  142.6401  165.1086 C.3     1  UNL1        0.1202
      9 C         143.3016  141.2866  165.7479 C.ar    1  UNL1       -0.0023
     10 C         143.7986  140.0749  165.0166 C.ar    1  UNL1       -0.0026
     11 C         143.7027  138.7212  165.6559 C.ar    1  UNL1       -0.0003
     12 C         143.1098  138.5794  167.0265 C.ar    1  UNL1       -0.0000
     13 C         142.6128  139.7911  167.7577 C.ar    1  UNL1       -0.0003
     14 C         142.7087  141.1448  167.1184 C.ar    1  UNL1       -0.0026
     15 C         141.3916  141.0115  159.7107 C.3     1  UNL1        0.1187
     16 N         141.8782  138.5533  160.6411 N.ar    1  UNL1       -0.3070
     17 C         143.1097  137.7228  160.8498 C.ar    1  UNL1        0.1786
     18 N         144.2943  138.5316  160.4107 N.ar    1  UNL1       -0.2226
     19 C         143.7948  139.8621  159.9305 C.ar    1  UNL1        0.1147
     20 C         142.3016  139.8755  160.0729 C.ar    1  UNL1        0.0741
     21 C         140.4705  138.1352  160.9467 C.3     1  UNL1        0.1340
     22 C         138.8614  138.5388  165.1298 C.ar    1  UNL1        0.0684
     23 C         138.2426  139.3210  164.0095 C.ar    1  UNL1        0.0100
     24 C         138.7790  139.1865  162.6151 C.ar    1  UNL1       -0.0017
     25 C         139.9341  138.2697  162.3411 C.ar    1  UNL1        0.0005
     26 C         140.5529  137.4875  163.4614 C.ar    1  UNL1       -0.0017
     27 C         140.0166  137.6220  164.8558 C.ar    1  UNL1        0.0100
     28 N         137.7887  138.8078  167.9185 N.1     1  UNL1       -0.1908
     29 C         138.3251  138.6733  166.5242 C.1     1  UNL1        0.1004
     30 C         141.2740  143.5685  159.2655 C.3     1  UNL1        0.0902
     31 C         139.9252  144.1703  159.5270 C.3     1  UNL1        0.0898
     32 N         139.2908  144.0301  160.8789 N.3     1  UNL1       -0.2672
     33 C         139.6129  145.0140  161.9643 C.3     1  UNL1        0.1047
     34 C         138.9785  144.8737  163.3163 C.3     1  UNL1        0.1595
     35 O         138.0218  143.7495  163.5829 O.3     1  UNL1       -0.3508
     36 C         137.6996  142.7656  162.4975 C.3     1  UNL1        0.1595
     37 C         138.3341  142.9059  161.1454 C.3     1  UNL1        0.1047
@<TRIPOS>BOND
     1    28    29    3
     2    29    22    1
     3    22    23   ar
     4    23    24   ar
     5    24    25   ar
     6    25    21    1
     7    21    16    1
     8    16    17   ar
     9    17    18   ar
    10    18    19   ar
    11    19    20   ar
    12    20    15    1
    13    15     1    1
    14     1    30    1
    15    30    31    1
    16    31    32    1
    17    32    33    1
    18    33    34    1
    19    34    35    1
    20    35    36    1
    21    36    37    1
    22     2     1    1
    23     2     3    1
    24     3     4    1
    25     4     5    1
    26     5     8    1
    27     8     9    1
    28     9    10   ar
    29    10    11   ar
    30    11    12   ar
    31    12    13   ar
    32    13    14   ar
    33     5     6   am
    34     6     7    2
    35    25    26   ar
    36    26    27   ar
    37    27    22   ar
    38    20    16   ar
    39    37    32    1
    40     6     2    1
    41    14     9   ar
@<TRIPOS>MOLECULE
*****
 37 41 0 0 0
SMALL
GASTEIGER

@<TRIPOS>ATOM
      1 N         141.0497  142.3357  161.5044 N.3     1  UNL1       -0.2602
      2 C         140.6023  142.1401  162.9227 C.3     1  UNL1        0.1370
      3 C         139.3930  142.7587  163.5591 C.3     1  UNL1        0.0468
      4 C         139.3290  142.2923  164.9834 C.3     1  UNL1        0.0957
      5 N         140.4986  141.3855  165.2272 N.am    1  UNL1       -0.2743
      6 C         141.2856  141.2914  163.9537 C.2     1  UNL1        0.2404
      7 O         142.5363  140.4894  163.7474 O.2     1  UNL1       -0.2734
      8 C         140.8242  140.6942  166.5179 C.3     1  UNL1        0.1202
      9 C         140.4855  141.3476  167.8249 C.ar    1  UNL1       -0.0023
     10 C         140.8681  142.7771  168.0701 C.ar    1  UNL1       -0.0026
     11 C         140.5294  143.4307  169.3772 C.ar    1  UNL1       -0.0003
     12 C         139.8081  142.6546  170.4390 C.ar    1  UNL1       -0.0000
     13 C         139.4255  141.2251  170.1939 C.ar    1  UNL1       -0.0003
     14 C         139.7642  140.5716  168.8868 C.ar    1  UNL1       -0.0026
     15 C         140.9178  141.2159  160.5152 C.3     1  UNL1        0.1187
     16 N         141.7718  138.6847  160.6092 N.ar    1  UNL1       -0.3070
     17 C         143.0994  138.0064  160.4437 C.ar    1  UNL1        0.1786
     18 N         144.1277  139.0621  160.1642 N.ar    1  UNL1       -0.2226
     19 C         143.4356  140.3929  160.1569 C.ar    1  UNL1        0.1147
     20 C         141.9796  140.1597  160.4320 C.ar    1  UNL1        0.0741
     21 C         140.4657  138.0071  160.9007 C.3     1  UNL1        0.1340
     22 C         138.6660  138.2662  165.0171 C.ar    1  UNL1        0.0684
     23 C         138.0694  139.0515  163.8869 C.ar    1  UNL1        0.0100
     24 C         138.6693  138.9651  162.5148 C.ar    1  UNL1       -0.0017
     25 C         139.8658  138.0935  162.2728 C.ar    1  UNL1        0.0005
     26 C         140.4624  137.3082  163.4030 C.ar    1  UNL1       -0.0017
     27 C         139.8625  137.3945  164.7751 C.ar    1  UNL1        0.0100
     28 N         137.4662  138.4389  167.7613 N.1     1  UNL1       -0.1908
     29 C         138.0661  138.3525  166.3892 C.1     1  UNL1        0.1004
     30 C         141.6290  143.6512  161.0755 C.3     1  UNL1        0.0902
     31 C         143.1070  143.8876  161.1737 C.3     1  UNL1        0.0898
     32 N         143.8569  143.4493  162.3965 N.3     1  UNL1       -0.2672
     33 C         143.5694  144.0894  163.7223 C.3     1  UNL1        0.1047
     34 C         144.3194  143.6510  164.9451 C.3     1  UNL1        0.1595
     35 O         145.3569  142.5726  164.8423 O.3     1  UNL1       -0.3508
     36 C         145.6444  141.9325  163.5166 C.3     1  UNL1        0.1595
     37 C         144.8944  142.3708  162.2936 C.3     1  UNL1        0.1047
@<TRIPOS>BOND
     1    28    29    3
     2    29    22    1
     3    22    23   ar
     4    23    24   ar
     5    24    25   ar
     6    25    21    1
     7    21    16    1
     8    16    17   ar
     9    17    18   ar
    10    18    19   ar
    11    19    20   ar
    12    20    15    1
    13    15     1    1
    14     1    30    1
    15    30    31    1
    16    31    32    1
    17    32    33    1
    18    33    34    1
    19    34    35    1
    20    35    36    1
    21    36    37    1
    22     2     1    1
    23     2     3    1
    24     3     4    1
    25     4     5    1
    26     5     8    1
    27     8     9    1
    28     9    10   ar
    29    10    11   ar
    30    11    12   ar
    31    12    13   ar
    32    13    14   ar
    33     5     6   am
    34     6     7    2
    35    25    26   ar
    36    26    27   ar
    37    27    22   ar
    38    20    16   ar
    39    37    32    1
    40     6     2    1
    41    14     9   ar
@<TRIPOS>MOLECULE
*****
 37 41 0 0 0
SMALL
GASTEIGER

@<TRIPOS>ATOM
      1 N         142.1380  141.8975  161.8685 N.3     1  UNL1       -0.2602
      2 C         142.4760  140.9524  162.9831 C.3     1  UNL1        0.1370
      3 C         143.6054  139.9651  162.9900 C.3     1  UNL1        0.0468
      4 C         143.5714  139.2311  164.2978 C.3     1  UNL1        0.0957
      5 N         142.4211  139.7646  165.0990 N.am    1  UNL1       -0.2743
      6 C         141.7442  140.8284  164.2866 C.2     1  UNL1        0.2404
      7 O         140.5456  141.6279  164.7043 O.2     1  UNL1       -0.2734
      8 C         142.0184  139.3136  166.4718 C.3     1  UNL1        0.1202
      9 C         142.4279  140.1120  167.6738 C.ar    1  UNL1       -0.0023
     10 C         142.8109  141.5542  167.5212 C.ar    1  UNL1       -0.0026
     11 C         143.2204  142.3527  168.7232 C.ar    1  UNL1       -0.0003
     12 C         143.2468  141.7090  170.0778 C.ar    1  UNL1       -0.0000
     13 C         142.8637  140.2668  170.2304 C.ar    1  UNL1       -0.0003
     14 C         142.4543  139.4683  169.0284 C.ar    1  UNL1       -0.0026
     15 C         141.4311  141.3927  160.6456 C.3     1  UNL1        0.1187
     16 N         141.2619  138.9373  159.6028 N.ar    1  UNL1       -0.3070
     17 C         142.1870  138.0495  158.8245 C.ar    1  UNL1        0.1786
     18 N         143.4805  138.7840  158.6307 N.ar    1  UNL1       -0.2226
     19 C         143.3548  140.1258  159.2894 C.ar    1  UNL1        0.1147
     20 C         141.9836  140.2206  159.8901 C.ar    1  UNL1        0.0741
     21 C         139.8611  138.6010  160.0206 C.3     1  UNL1        0.1340
     22 C         138.7408  138.6450  164.3787 C.ar    1  UNL1        0.0684
     23 C         139.7991  137.7032  163.8858 C.ar    1  UNL1        0.0100
     24 C         140.1725  137.6885  162.4331 C.ar    1  UNL1       -0.0017
     25 C         139.4876  138.6157  161.4733 C.ar    1  UNL1        0.0005
     26 C         138.4294  139.5575  161.9661 C.ar    1  UNL1       -0.0017
     27 C         138.0559  139.5721  163.4188 C.ar    1  UNL1        0.0100
     28 N         137.9939  138.6743  167.2841 N.1     1  UNL1       -0.1908
     29 C         138.3674  138.6596  165.8314 C.1     1  UNL1        0.1004
     30 C         142.5068  143.3474  161.9769 C.3     1  UNL1        0.0902
     31 C         141.4474  144.4021  161.8532 C.3     1  UNL1        0.0898
     32 N         140.2090  144.3235  162.6959 N.3     1  UNL1       -0.2672
     33 C         138.9715  143.6737  162.1517 C.3     1  UNL1        0.1047
     34 C         137.7331  143.5952  162.9944 C.3     1  UNL1        0.1595
     35 O         137.7322  144.1664  164.3814 O.3     1  UNL1       -0.3508
     36 C         138.9698  144.8162  164.9256 C.3     1  UNL1        0.1595
     37 C         140.2083  144.8948  164.0828 C.3     1  UNL1        0.1047
@<TRIPOS>BOND
     1    28    29    3
     2    29    22    1
     3    22    23   ar
     4    23    24   ar
     5    24    25   ar
     6    25    21    1
     7    21    16    1
     8    16    17   ar
     9    17    18   ar
    10    18    19   ar
    11    19    20   ar
    12    20    15    1
    13    15     1    1
    14     1    30    1
    15    30    31    1
    16    31    32    1
    17    32    33    1
    18    33    34    1
    19    34    35    1
    20    35    36    1
    21    36    37    1
    22     2     1    1
    23     2     3    1
    24     3     4    1
    25     4     5    1
    26     5     8    1
    27     8     9    1
    28     9    10   ar
    29    10    11   ar
    30    11    12   ar
    31    12    13   ar
    32    13    14   ar
    33     5     6   am
    34     6     7    2
    35    25    26   ar
    36    26    27   ar
    37    27    22   ar
    38    20    16   ar
    39    37    32    1
    40     6     2    1
    41    14     9   ar
@<TRIPOS>MOLECULE
*****
 37 41 0 0 0
SMALL
GASTEIGER

@<TRIPOS>ATOM
      1 N         138.6620  140.5265  160.6192 N.3     1  UNL1       -0.2602
      2 C         138.5883  141.3084  161.8972 C.3     1  UNL1        0.1370
      3 C         137.4939  141.2255  162.9197 C.3     1  UNL1        0.0468
      4 C         137.8253  142.1764  164.0315 C.3     1  UNL1        0.0957
      5 N         139.1245  142.8469  163.6961 N.am    1  UNL1       -0.2743
      6 C         139.5960  142.3105  162.3771 C.2     1  UNL1        0.2404
      7 O         140.8544  142.7066  161.6633 O.2     1  UNL1       -0.2734
      8 C         139.8285  143.8736  164.5329 C.3     1  UNL1        0.1202
      9 C         141.3258  143.8687  164.6237 C.ar    1  UNL1       -0.0023
     10 C         142.1209  144.9546  163.9614 C.ar    1  UNL1       -0.0026
     11 C         143.6182  144.9497  164.0522 C.ar    1  UNL1       -0.0003
     12 C         144.3203  143.8588  164.8053 C.ar    1  UNL1       -0.0000
     13 C         143.5252  142.7729  165.4676 C.ar    1  UNL1       -0.0003
     14 C         142.0279  142.7778  165.3768 C.ar    1  UNL1       -0.0026
     15 C         138.8667  139.0410  160.6597 C.3     1  UNL1        0.1187
     16 N         140.0898  137.9372  162.7645 N.ar    1  UNL1       -0.3070
     17 C         141.4840  137.4655  163.0539 C.ar    1  UNL1        0.1786
     18 N         142.3176  137.7042  161.8298 N.ar    1  UNL1       -0.2226
     19 C         141.4385  138.3235  160.7839 C.ar    1  UNL1        0.1147
     20 C         140.0618  138.4675  161.3616 C.ar    1  UNL1        0.0741
     21 C         138.9278  137.8875  163.7117 C.3     1  UNL1        0.1340
     22 C         139.2410  139.8253  167.7610 C.ar    1  UNL1        0.0684
     23 C         138.1081  138.8884  167.4635 C.ar    1  UNL1        0.0100
     24 C         138.0037  138.2424  166.1137 C.ar    1  UNL1       -0.0017
     25 C         139.0322  138.5334  165.0614 C.ar    1  UNL1        0.0005
     26 C         140.1651  139.4704  165.3589 C.ar    1  UNL1       -0.0017
     27 C         140.2695  140.1163  166.7087 C.ar    1  UNL1        0.0100
     28 N         139.4498  141.1172  170.4605 N.1     1  UNL1       -0.1908
     29 C         139.3454  140.4713  169.1107 C.1     1  UNL1        0.1004
     30 C         138.5309  141.2300  159.3010 C.3     1  UNL1        0.0902
     31 C         139.7245  141.3692  158.4032 C.3     1  UNL1        0.0898
     32 N         140.5220  142.6396  158.4075 N.3     1  UNL1       -0.2672
     33 C         139.8403  143.9523  158.6570 C.3     1  UNL1        0.1047
     34 C         140.6379  145.2227  158.6612 C.3     1  UNL1        0.1595
     35 O         142.1171  145.1805  158.4160 O.3     1  UNL1       -0.3508
     36 C         142.7988  143.8678  158.1664 C.3     1  UNL1        0.1595
     37 C         142.0012  142.5974  158.1622 C.3     1  UNL1        0.1047
@<TRIPOS>BOND
     1    28    29    3
     2    29    22    1
     3    22    23   ar
     4    23    24   ar
     5    24    25   ar
     6    25    21    1
     7    21    16    1
     8    16    17   ar
     9    17    18   ar
    10    18    19   ar
    11    19    20   ar
    12    20    15    1
    13    15     1    1
    14     1    30    1
    15    30    31    1
    16    31    32    1
    17    32    33    1
    18    33    34    1
    19    34    35    1
    20    35    36    1
    21    36    37    1
    22     2     1    1
    23     2     3    1
    24     3     4    1
    25     4     5    1
    26     5     8    1
    27     8     9    1
    28     9    10   ar
    29    10    11   ar
    30    11    12   ar
    31    12    13   ar
    32    13    14   ar
    33     5     6   am
    34     6     7    2
    35    25    26   ar
    36    26    27   ar
    37    27    22   ar
    38    20    16   ar
    39    37    32    1
    40     6     2    1
    41    14     9   ar
@<TRIPOS>MOLECULE
*****
 37 41 0 0 0
SMALL
GASTEIGER

@<TRIPOS>ATOM
      1 N         142.2331  141.1873  160.2940 N.3     1  UNL1       -0.2602
      2 C         142.1632  139.9772  161.1776 C.3     1  UNL1        0.1370
      3 C         142.2008  138.5488  160.7210 C.3     1  UNL1        0.0468
      4 C         142.1044  137.6718  161.9341 C.3     1  UNL1        0.0957
      5 N         142.0071  138.5581  163.1403 N.am    1  UNL1       -0.2743
      6 C         142.0435  139.9828  162.6727 C.2     1  UNL1        0.2404
      7 O         141.9726  141.1997  163.5470 O.2     1  UNL1       -0.2734
      8 C         141.8935  138.1000  164.5641 C.3     1  UNL1        0.1202
      9 C         140.6775  138.4497  165.3697 C.ar    1  UNL1       -0.0023
     10 C         139.3763  137.7520  165.1051 C.ar    1  UNL1       -0.0026
     11 C         138.1602  138.1017  165.9107 C.ar    1  UNL1       -0.0003
     12 C         138.2454  139.1492  166.9810 C.ar    1  UNL1       -0.0000
     13 C         139.5466  139.8470  167.2456 C.ar    1  UNL1       -0.0003
     14 C         140.7627  139.4973  166.4400 C.ar    1  UNL1       -0.0026
     15 C         141.0232  142.0558  160.1147 C.3     1  UNL1        0.1187
     16 N         138.6648  140.8805  159.6656 N.ar    1  UNL1       -0.3070
     17 C         137.8193  140.6284  158.4525 C.ar    1  UNL1        0.1786
     18 N         138.5340  141.1978  157.2628 N.ar    1  UNL1       -0.2226
     19 C         139.8212  141.8018  157.7408 C.ar    1  UNL1        0.1147
     20 C         139.9021  141.6057  159.2257 C.ar    1  UNL1        0.0741
     21 C         138.3316  140.4782  161.0717 C.3     1  UNL1        0.1340
     22 C         138.1322  143.5908  164.3154 C.ar    1  UNL1        0.0684
     23 C         138.4455  142.1654  164.6619 C.ar    1  UNL1        0.0100
     24 C         138.5120  141.1279  163.5807 C.ar    1  UNL1       -0.0017
     25 C         138.2652  141.5157  162.1529 C.ar    1  UNL1        0.0005
     26 C         137.9518  142.9411  161.8064 C.ar    1  UNL1       -0.0017
     27 C         137.8853  143.9786  162.8876 C.ar    1  UNL1        0.0100
     28 N         137.9992  145.6659  166.4779 N.1     1  UNL1       -0.1908
     29 C         138.0657  144.6283  165.3967 C.1     1  UNL1        0.1004
     30 C         143.5127  141.5290  159.5899 C.3     1  UNL1        0.0902
     31 C         144.4256  142.5746  160.1585 C.3     1  UNL1        0.0898
     32 N         144.5428  142.7399  161.6447 N.3     1  UNL1       -0.2672
     33 C         143.8729  143.8962  162.3260 C.3     1  UNL1        0.1047
     34 C         143.9902  144.0613  163.8123 C.3     1  UNL1        0.1595
     35 O         144.7774  143.0702  164.6173 O.3     1  UNL1       -0.3508
     36 C         145.4473  141.9139  163.9360 C.3     1  UNL1        0.1595
     37 C         145.3300  141.7487  162.4497 C.3     1  UNL1        0.1047
@<TRIPOS>BOND
     1    28    29    3
     2    29    22    1
     3    22    23   ar
     4    23    24   ar
     5    24    25   ar
     6    25    21    1
     7    21    16    1
     8    16    17   ar
     9    17    18   ar
    10    18    19   ar
    11    19    20   ar
    12    20    15    1
    13    15     1    1
    14     1    30    1
    15    30    31    1
    16    31    32    1
    17    32    33    1
    18    33    34    1
    19    34    35    1
    20    35    36    1
    21    36    37    1
    22     2     1    1
    23     2     3    1
    24     3     4    1
    25     4     5    1
    26     5     8    1
    27     8     9    1
    28     9    10   ar
    29    10    11   ar
    30    11    12   ar
    31    12    13   ar
    32    13    14   ar
    33     5     6   am
    34     6     7    2
    35    25    26   ar
    36    26    27   ar
    37    27    22   ar
    38    20    16   ar
    39    37    32    1
    40     6     2    1
    41    14     9   ar
@<TRIPOS>MOLECULE
*****
 37 41 0 0 0
SMALL
GASTEIGER

@<TRIPOS>ATOM
      1 N         143.1470  140.5230  161.2023 N.3     1  UNL1       -0.2602
      2 C         143.0347  140.4046  162.6934 C.3     1  UNL1        0.1370
      3 C         143.9626  139.6390  163.5895 C.3     1  UNL1        0.0468
      4 C         143.4761  139.7923  165.0001 C.3     1  UNL1        0.0957
      5 N         142.2476  140.6525  164.9759 N.am    1  UNL1       -0.2743
      6 C         141.9748  141.0309  163.5503 C.2     1  UNL1        0.2404
      7 O         140.8410  141.8857  163.0666 O.2     1  UNL1       -0.2734
      8 C         141.4346  141.0623  166.1680 C.3     1  UNL1        0.1202
      9 C         142.0248  140.9751  167.5442 C.ar    1  UNL1       -0.0023
     10 C         142.7654  142.1464  168.1182 C.ar    1  UNL1       -0.0026
     11 C         143.3557  142.0593  169.4945 C.ar    1  UNL1       -0.0003
     12 C         143.2053  140.8008  170.2968 C.ar    1  UNL1       -0.0000
     13 C         142.4647  139.6295  169.7228 C.ar    1  UNL1       -0.0003
     14 C         141.8744  139.7166  168.3464 C.ar    1  UNL1       -0.0026
     15 C         142.2932  139.6658  160.3155 C.3     1  UNL1        0.1187
     16 N         139.6239  139.5496  160.2374 N.ar    1  UNL1       -0.3070
     17 C         138.5460  140.3553  159.5747 C.ar    1  UNL1        0.1786
     18 N         139.2027  141.4583  158.7985 N.ar    1  UNL1       -0.2226
     19 C         140.6863  141.3342  158.9816 C.ar    1  UNL1        0.1147
     20 C         140.9466  140.1546  159.8708 C.ar    1  UNL1        0.0741
     21 C         139.4155  138.3496  161.1130 C.3     1  UNL1        0.1340
     22 C         138.6952  138.8800  165.5232 C.ar    1  UNL1        0.0684
     23 C         138.0765  139.8315  164.5424 C.ar    1  UNL1        0.0100
     24 C         138.3166  139.6547  163.0724 C.ar    1  UNL1       -0.0017
     25 C         139.1754  138.5264  162.5831 C.ar    1  UNL1        0.0005
     26 C         139.7941  137.5750  163.5638 C.ar    1  UNL1       -0.0017
     27 C         139.5540  137.7518  165.0339 C.ar    1  UNL1        0.0100
     28 N         138.2149  139.2337  168.4633 N.1     1  UNL1       -0.1908
     29 C         138.4550  139.0569  166.9933 C.1     1  UNL1        0.1004
     30 C         144.1130  141.4986  160.5981 C.3     1  UNL1        0.0902
     31 C         143.6588  142.8846  160.2480 C.3     1  UNL1        0.0898
     32 N         143.0856  143.7764  161.3091 N.3     1  UNL1       -0.2672
     33 C         143.8757  144.0695  162.5499 C.3     1  UNL1        0.1047
     34 C         143.3024  144.9613  163.6110 C.3     1  UNL1        0.1595
     35 O         141.9388  145.5600  163.4313 O.3     1  UNL1       -0.3508
     36 C         141.1486  145.2670  162.1905 C.3     1  UNL1        0.1595
     37 C         141.7220  144.3751  161.1293 C.3     1  UNL1        0.1047
@<TRIPOS>BOND
     1    28    29    3
     2    29    22    1
     3    22    23   ar
     4    23    24   ar
     5    24    25   ar
     6    25    21    1
     7    21    16    1
     8    16    17   ar
     9    17    18   ar
    10    18    19   ar
    11    19    20   ar
    12    20    15    1
    13    15     1    1
    14     1    30    1
    15    30    31    1
    16    31    32    1
    17    32    33    1
    18    33    34    1
    19    34    35    1
    20    35    36    1
    21    36    37    1
    22     2     1    1
    23     2     3    1
    24     3     4    1
    25     4     5    1
    26     5     8    1
    27     8     9    1
    28     9    10   ar
    29    10    11   ar
    30    11    12   ar
    31    12    13   ar
    32    13    14   ar
    33     5     6   am
    34     6     7    2
    35    25    26   ar
    36    26    27   ar
    37    27    22   ar
    38    20    16   ar
    39    37    32    1
    40     6     2    1
    41    14     9   ar
