@<TRIPOS>MOLECULE
*****
 38 41 0 0 0
SMALL
GASTEIGER

@<TRIPOS>ATOM
      1 S         141.4508  142.5559  164.0549 S.O2    1  UNL1        0.0806
      2 O         141.0921  141.8417  162.7854 O.2     1  UNL1       -0.1496
      3 O         141.8095  143.2701  165.3242 O.2     1  UNL1       -0.1496
      4 C         140.5687  141.6221  164.8294 C.ar    1  UNL1        0.1255
      5 C         141.0654  141.0047  166.1031 C.ar    1  UNL1        0.0199
      6 C         140.1834  140.0710  166.8777 C.ar    1  UNL1       -0.0029
      7 C         138.8047  139.7545  166.3787 C.ar    1  UNL1       -0.0221
      8 C         138.3080  140.3719  165.1050 C.ar    1  UNL1       -0.0029
      9 C         139.1900  141.3057  164.3304 C.ar    1  UNL1        0.0199
     10 C         137.9226  138.8208  167.1532 C.3     1  UNL1        0.0264
     11 C         137.7294  137.4092  166.6839 C.3     1  UNL1        0.0047
     12 C         138.2319  136.9923  165.3335 C.3     1  UNL1        0.0003
     13 C         139.7070  136.9259  165.0698 C.3     1  UNL1        0.0001
     14 C         140.2726  137.5262  163.8170 C.3     1  UNL1        0.0028
     15 C         141.7222  137.9073  163.7560 C.3     1  UNL1        0.0174
     16 C         142.2878  138.5076  162.5031 C.3     1  UNL1        0.0721
     17 N         141.4040  138.7269  161.3112 N.3     1  UNL1       -0.2715
     18 C         141.9696  139.3272  160.0583 C.3     1  UNL1        0.0896
     19 C         139.9545  138.3458  161.3722 C.3     1  UNL1        0.0721
     20 C         139.3888  137.7455  162.6250 C.3     1  UNL1        0.0174
     21 N         142.3329  143.4897  163.2802 N.pl3   1  UNL1       -0.1328
     22 C         140.7414  145.1307  162.0457 C.ar    1  UNL1       -0.0070
     23 C         140.2450  145.7475  160.7717 C.ar    1  UNL1       -0.0014
     24 C         140.8437  145.3400  159.4581 C.ar    1  UNL1        0.0207
     25 C         141.9388  144.3158  159.4185 C.ar    1  UNL1        0.1036
     26 N         142.7155  143.7202  158.2818 N.ar    1  UNL1       -0.1692
     27 N         143.6919  142.7354  158.8534 N.ar    1  UNL1       -0.2473
     28 C         144.6698  141.9087  158.0721 C.3     1  UNL1        0.1538
     29 C         143.5187  142.7222  160.3433 C.ar    1  UNL1        0.0979
     30 C         142.4352  143.6990  160.6926 C.ar    1  UNL1        0.0528
     31 C         141.8365  144.1065  162.0062 C.ar    1  UNL1        0.0731
     32 C         140.1427  145.5382  163.3594 C.3     1  UNL1        0.0277
     33 C         137.9330  144.2648  162.8639 C.3     1  UNL1        0.0003
     34 C         138.8842  144.8825  163.8455 C.3     1  UNL1        0.0044
     35 C         138.5769  144.8446  165.3132 C.3     1  UNL1        0.0003
     36 C         143.7113  143.8066  163.7796 C.3     1  UNL1        0.4200
     37 F         144.7578  142.7329  163.8252 F       1  UNL1       -0.1736
     38 F         144.0433  145.1973  164.2334 F       1  UNL1       -0.1736
@<TRIPOS>BOND
     1    33    34    1
     2    34    35    1
     3    34    32    1
     4    32    22    1
     5    22    23   ar
     6    23    24   ar
     7    24    25   ar
     8    25    26   ar
     9    26    27   ar
    10    27    28    1
    11    27    29   ar
    12    29    30   ar
    13    30    31   ar
    14    31    21    1
    15    21    36    1
    16    36    37    1
    17    36    38    1
    18    21     1    1
    19     1     2    2
    20     1     3    2
    21     1     4    1
    22     4     5   ar
    23     5     6   ar
    24     6     7   ar
    25     7    10    1
    26    10    11    1
    27    11    12    1
    28    12    13    1
    29    13    14    1
    30    14    15    1
    31    15    16    1
    32    16    17    1
    33    17    18    1
    34    17    19    1
    35    19    20    1
    36     7     8   ar
    37     8     9   ar
    38    31    22   ar
    39     9     4   ar
    40    30    25   ar
    41    20    14    1
@<TRIPOS>MOLECULE
*****
 38 41 0 0 0
SMALL
GASTEIGER

@<TRIPOS>ATOM
      1 S         142.9970  142.3506  163.8020 S.O2    1  UNL1        0.0806
      2 O         142.1209  141.1649  163.5251 O.2     1  UNL1       -0.1496
      3 O         143.8731  143.5363  164.0788 O.2     1  UNL1       -0.1496
      4 C         142.3986  142.4729  165.1720 C.ar    1  UNL1        0.1255
      5 C         140.9574  142.8581  165.3293 C.ar    1  UNL1        0.0199
      6 C         140.3590  142.9803  166.6992 C.ar    1  UNL1       -0.0029
      7 C         141.2017  142.7174  167.9120 C.ar    1  UNL1       -0.0221
      8 C         142.6428  142.3322  167.7547 C.ar    1  UNL1       -0.0029
      9 C         143.2413  142.2099  166.3847 C.ar    1  UNL1        0.0199
     10 C         140.6033  142.8396  169.2820 C.3     1  UNL1        0.0264
     11 C         139.9021  141.6671  169.9015 C.3     1  UNL1        0.0047
     12 C         139.9836  140.3166  169.2539 C.3     1  UNL1        0.0003
     13 C         138.9249  139.8855  168.2826 C.3     1  UNL1        0.0001
     14 C         139.3159  139.2832  166.9657 C.3     1  UNL1        0.0028
     15 C         138.2625  138.7335  166.0501 C.3     1  UNL1        0.0174
     16 C         138.6534  138.1312  164.7331 C.3     1  UNL1        0.0721
     17 N         140.0977  138.0787  164.3316 N.3     1  UNL1       -0.2715
     18 C         140.4886  137.4764  163.0147 C.3     1  UNL1        0.0896
     19 C         141.1510  138.6284  165.2472 C.3     1  UNL1        0.0721
     20 C         140.7602  139.2307  166.5642 C.3     1  UNL1        0.0174
     21 N         143.5954  142.2284  162.4319 N.pl3   1  UNL1       -0.1328
     22 C         142.8560  141.1550  160.1844 C.ar    1  UNL1       -0.0070
     23 C         141.9680  141.1536  158.9756 C.ar    1  UNL1       -0.0014
     24 C         140.9312  142.2242  158.8053 C.ar    1  UNL1        0.0207
     25 C         140.7825  143.2961  159.8439 C.ar    1  UNL1        0.1036
     26 N         139.8571  144.4722  159.9472 N.ar    1  UNL1       -0.1692
     27 N         140.1733  145.2004  161.2198 N.ar    1  UNL1       -0.2473
     28 C         139.4888  146.4374  161.7212 C.3     1  UNL1        0.1538
     29 C         141.2940  144.4744  161.9032 C.ar    1  UNL1        0.0979
     30 C         141.6705  143.2975  161.0528 C.ar    1  UNL1        0.0528
     31 C         142.7073  142.2270  161.2230 C.ar    1  UNL1        0.0731
     32 C         143.8928  140.0844  160.3547 C.3     1  UNL1        0.0277
     33 C         143.8595  138.5185  162.4276 C.3     1  UNL1        0.0003
     34 C         143.5229  138.7763  160.9887 C.3     1  UNL1        0.0044
     35 C         142.8165  137.7259  160.1840 C.3     1  UNL1        0.0003
     36 C         145.0818  142.1075  162.2707 C.3     1  UNL1        0.4200
     37 F         145.7571  142.7042  161.0716 F       1  UNL1       -0.1736
     38 F         145.8928  141.3898  163.3086 F       1  UNL1       -0.1736
@<TRIPOS>BOND
     1    33    34    1
     2    34    35    1
     3    34    32    1
     4    32    22    1
     5    22    23   ar
     6    23    24   ar
     7    24    25   ar
     8    25    26   ar
     9    26    27   ar
    10    27    28    1
    11    27    29   ar
    12    29    30   ar
    13    30    31   ar
    14    31    21    1
    15    21    36    1
    16    36    37    1
    17    36    38    1
    18    21     1    1
    19     1     2    2
    20     1     3    2
    21     1     4    1
    22     4     5   ar
    23     5     6   ar
    24     6     7   ar
    25     7    10    1
    26    10    11    1
    27    11    12    1
    28    12    13    1
    29    13    14    1
    30    14    15    1
    31    15    16    1
    32    16    17    1
    33    17    18    1
    34    17    19    1
    35    19    20    1
    36     7     8   ar
    37     8     9   ar
    38    31    22   ar
    39     9     4   ar
    40    30    25   ar
    41    20    14    1
@<TRIPOS>MOLECULE
*****
 38 41 0 0 0
SMALL
GASTEIGER

@<TRIPOS>ATOM
      1 S         143.2869  141.2458  162.8693 S.O2    1  UNL1        0.0806
      2 O         142.6562  140.1685  163.7011 O.2     1  UNL1       -0.1496
      3 O         143.9175  142.3231  162.0376 O.2     1  UNL1       -0.1496
      4 C         143.1512  140.3834  161.6495 C.ar    1  UNL1        0.1255
      5 C         143.2544  140.9948  160.2837 C.ar    1  UNL1        0.0199
      6 C         143.1187  140.1325  159.0638 C.ar    1  UNL1       -0.0029
      7 C         142.8797  138.6589  159.2099 C.ar    1  UNL1       -0.0221
      8 C         142.7765  138.0475  160.5757 C.ar    1  UNL1       -0.0029
      9 C         142.9122  138.9098  161.7956 C.ar    1  UNL1        0.0199
     10 C         142.7440  137.7965  157.9901 C.3     1  UNL1        0.0264
     11 C         141.5185  137.8996  157.1312 C.3     1  UNL1        0.0047
     12 C         140.1574  137.8812  157.7612 C.3     1  UNL1        0.0003
     13 C         139.5283  139.1615  158.2252 C.3     1  UNL1        0.0001
     14 C         139.4418  139.4663  159.6913 C.3     1  UNL1        0.0028
     15 C         139.5899  140.8789  160.1737 C.3     1  UNL1        0.0174
     16 C         139.5034  141.1838  161.6398 C.3     1  UNL1        0.0721
     17 N         139.2689  140.0761  162.6236 N.3     1  UNL1       -0.2715
     18 C         139.1824  140.3810  164.0898 C.3     1  UNL1        0.0896
     19 C         139.1208  138.6635  162.1413 C.3     1  UNL1        0.0721
     20 C         139.2073  138.3586  160.6752 C.3     1  UNL1        0.0174
     21 N         143.4226  142.1081  164.0892 N.pl3   1  UNL1       -0.1328
     22 C         141.8797  142.0859  166.1794 C.ar    1  UNL1       -0.0070
     23 C         140.6540  142.5718  166.8945 C.ar    1  UNL1       -0.0014
     24 C         139.7452  143.5661  166.2344 C.ar    1  UNL1        0.0207
     25 C         140.0623  144.0744  164.8592 C.ar    1  UNL1        0.1036
     26 N         139.3587  145.0496  163.9627 N.ar    1  UNL1       -0.1692
     27 N         140.1496  145.1663  162.6935 N.ar    1  UNL1       -0.2473
     28 C         139.8081  146.0338  161.5184 C.3     1  UNL1        0.1538
     29 C         141.3421  144.2632  162.8056 C.ar    1  UNL1        0.0979
     30 C         141.2881  143.5884  164.1442 C.ar    1  UNL1        0.0528
     31 C         142.1968  142.5941  164.8043 C.ar    1  UNL1        0.0731
     32 C         142.7884  141.0916  166.8395 C.3     1  UNL1        0.0277
     33 C         142.2292  139.7311  168.9811 C.3     1  UNL1        0.0003
     34 C         142.7965  140.9595  168.3337 C.3     1  UNL1        0.0044
     35 C         143.3720  142.0558  169.1805 C.3     1  UNL1        0.0003
     36 C         144.7840  142.4845  164.5940 C.3     1  UNL1        0.4200
     37 F         144.9400  143.6340  165.5449 F       1  UNL1       -0.1736
     38 F         145.9895  141.7112  164.1479 F       1  UNL1       -0.1736
@<TRIPOS>BOND
     1    33    34    1
     2    34    35    1
     3    34    32    1
     4    32    22    1
     5    22    23   ar
     6    23    24   ar
     7    24    25   ar
     8    25    26   ar
     9    26    27   ar
    10    27    28    1
    11    27    29   ar
    12    29    30   ar
    13    30    31   ar
    14    31    21    1
    15    21    36    1
    16    36    37    1
    17    36    38    1
    18    21     1    1
    19     1     2    2
    20     1     3    2
    21     1     4    1
    22     4     5   ar
    23     5     6   ar
    24     6     7   ar
    25     7    10    1
    26    10    11    1
    27    11    12    1
    28    12    13    1
    29    13    14    1
    30    14    15    1
    31    15    16    1
    32    16    17    1
    33    17    18    1
    34    17    19    1
    35    19    20    1
    36     7     8   ar
    37     8     9   ar
    38    31    22   ar
    39     9     4   ar
    40    30    25   ar
    41    20    14    1
@<TRIPOS>MOLECULE
*****
 38 41 0 0 0
SMALL
GASTEIGER

@<TRIPOS>ATOM
      1 S         139.8616  141.0562  162.5209 S.O2    1  UNL1        0.0806
      2 O         140.9571  140.0342  162.4460 O.2     1  UNL1       -0.1496
      3 O         138.7661  142.0781  162.5957 O.2     1  UNL1       -0.1496
      4 C         139.6546  140.7282  163.9699 C.ar    1  UNL1        0.1255
      5 C         139.2345  139.3459  164.3733 C.ar    1  UNL1        0.0199
      6 C         139.0275  139.0178  165.8222 C.ar    1  UNL1       -0.0029
      7 C         139.2406  140.0720  166.8678 C.ar    1  UNL1       -0.0221
      8 C         139.6607  141.4543  166.4644 C.ar    1  UNL1       -0.0029
      9 C         139.8677  141.7824  165.0154 C.ar    1  UNL1        0.0199
     10 C         139.0337  139.7440  168.3167 C.3     1  UNL1        0.0264
     11 C         139.8358  140.4522  169.3680 C.3     1  UNL1        0.0047
     12 C         140.9569  139.7385  170.0636 C.3     1  UNL1        0.0003
     13 C         142.3787  140.0168  169.6749 C.3     1  UNL1        0.0001
     14 C         142.7038  140.4397  168.2730 C.3     1  UNL1        0.0028
     15 C         142.9790  141.8827  167.9696 C.3     1  UNL1        0.0174
     16 C         143.3041  142.3057  166.5677 C.3     1  UNL1        0.0721
     17 N         143.3541  141.2856  165.4690 N.3     1  UNL1       -0.2715
     18 C         143.6792  141.7085  164.0671 C.3     1  UNL1        0.0896
     19 C         143.0789  139.8426  165.7724 C.3     1  UNL1        0.0721
     20 C         142.7538  139.4196  167.1744 C.3     1  UNL1        0.0174
     21 N         140.0686  141.3841  161.0718 N.pl3   1  UNL1       -0.1328
     22 C         142.2008  142.8553  160.8735 C.ar    1  UNL1       -0.0070
     23 C         143.5878  143.0676  160.3434 C.ar    1  UNL1       -0.0014
     24 C         144.2297  142.0212  159.4813 C.ar    1  UNL1        0.0207
     25 C         143.4845  140.7624  159.1495 C.ar    1  UNL1        0.1036
     26 N         143.8564  139.5623  158.3302 N.ar    1  UNL1       -0.1692
     27 N         142.6992  138.6082  158.3539 N.ar    1  UNL1       -0.2473
     28 C         142.6395  137.2772  157.6647 C.3     1  UNL1        0.1538
     29 C         141.6121  139.2186  159.1880 C.ar    1  UNL1        0.0979
     30 C         142.0975  140.5500  159.6797 C.ar    1  UNL1        0.0528
     31 C         141.4556  141.5965  160.5417 C.ar    1  UNL1        0.0731
     32 C         141.5589  143.9017  161.7355 C.3     1  UNL1        0.0277
     33 C         139.7163  145.7200  161.9553 C.3     1  UNL1        0.0003
     34 C         140.6994  144.9620  161.1134 C.3     1  UNL1        0.0044
     35 C         140.8230  145.2642  159.6493 C.3     1  UNL1        0.0003
     36 C         138.8886  141.4997  160.1530 C.3     1  UNL1        0.4200
     37 F         138.0791  140.2829  159.8153 F       1  UNL1       -0.1736
     38 F         138.5182  142.8321  159.5720 F       1  UNL1       -0.1736
@<TRIPOS>BOND
     1    33    34    1
     2    34    35    1
     3    34    32    1
     4    32    22    1
     5    22    23   ar
     6    23    24   ar
     7    24    25   ar
     8    25    26   ar
     9    26    27   ar
    10    27    28    1
    11    27    29   ar
    12    29    30   ar
    13    30    31   ar
    14    31    21    1
    15    21    36    1
    16    36    37    1
    17    36    38    1
    18    21     1    1
    19     1     2    2
    20     1     3    2
    21     1     4    1
    22     4     5   ar
    23     5     6   ar
    24     6     7   ar
    25     7    10    1
    26    10    11    1
    27    11    12    1
    28    12    13    1
    29    13    14    1
    30    14    15    1
    31    15    16    1
    32    16    17    1
    33    17    18    1
    34    17    19    1
    35    19    20    1
    36     7     8   ar
    37     8     9   ar
    38    31    22   ar
    39     9     4   ar
    40    30    25   ar
    41    20    14    1
@<TRIPOS>MOLECULE
*****
 38 41 0 0 0
SMALL
GASTEIGER

@<TRIPOS>ATOM
      1 S         143.3318  141.5404  164.1652 S.O2    1  UNL1        0.0806
      2 O         142.7545  140.1977  163.8276 O.2     1  UNL1       -0.1496
      3 O         143.9091  142.8831  164.5027 O.2     1  UNL1       -0.1496
      4 C         143.1687  141.2432  165.6264 C.ar    1  UNL1        0.1255
      5 C         142.9739  139.8289  166.0868 C.ar    1  UNL1        0.0199
      6 C         142.8107  139.5316  167.5479 C.ar    1  UNL1       -0.0029
      7 C         142.8424  140.6485  168.5487 C.ar    1  UNL1       -0.0221
      8 C         143.0372  142.0628  168.0883 C.ar    1  UNL1       -0.0029
      9 C         143.2003  142.3601  166.6271 C.ar    1  UNL1        0.0199
     10 C         142.6793  140.3513  170.0098 C.3     1  UNL1        0.0264
     11 C         141.3144  140.3724  170.6317 C.3     1  UNL1        0.0047
     12 C         140.1521  140.9381  169.8707 C.3     1  UNL1        0.0003
     13 C         139.1631  140.0178  169.2188 C.3     1  UNL1        0.0001
     14 C         139.0446  139.9817  167.7240 C.3     1  UNL1        0.0028
     15 C         139.6402  141.0828  166.8976 C.3     1  UNL1        0.0174
     16 C         139.5218  141.0468  165.4027 C.3     1  UNL1        0.0721
     17 N         138.8078  139.9096  164.7341 N.3     1  UNL1       -0.2715
     18 C         138.6894  139.8735  163.2393 C.3     1  UNL1        0.0896
     19 C         138.2122  138.8085  165.5605 C.3     1  UNL1        0.0721
     20 C         138.3306  138.8445  167.0554 C.3     1  UNL1        0.0174
     21 N         143.4949  141.8376  162.7040 N.pl3   1  UNL1       -0.1328
     22 C         142.3278  140.9243  160.5700 C.ar    1  UNL1       -0.0070
     23 C         141.1375  140.8803  159.6583 C.ar    1  UNL1       -0.0014
     24 C         139.9240  141.7056  159.9688 C.ar    1  UNL1        0.0207
     25 C         139.9008  142.5748  161.1910 C.ar    1  UNL1        0.1036
     26 N         138.8539  143.4917  161.7508 N.ar    1  UNL1       -0.1692
     27 N         139.3973  144.1023  163.0085 N.ar    1  UNL1       -0.2473
     28 C         138.6833  145.0807  163.8935 C.3     1  UNL1        0.1538
     29 C         140.7799  143.5629  163.2261 C.ar    1  UNL1        0.0979
     30 C         141.0911  142.6188  162.1027 C.ar    1  UNL1        0.0528
     31 C         142.3046  141.7936  161.7922 C.ar    1  UNL1        0.0731
     32 C         143.5413  140.0990  160.2596 C.3     1  UNL1        0.0277
     33 C         142.8717  137.7827  159.2922 C.3     1  UNL1        0.0003
     34 C         143.4850  138.6055  160.3862 C.3     1  UNL1        0.0044
     35 C         144.0419  137.9346  161.6068 C.3     1  UNL1        0.0003
     36 C         144.8483  142.1787  162.1545 C.3     1  UNL1        0.4200
     37 F         146.0838  141.6564  162.8260 F       1  UNL1       -0.1736
     38 F         144.9662  143.0422  160.9336 F       1  UNL1       -0.1736
@<TRIPOS>BOND
     1    33    34    1
     2    34    35    1
     3    34    32    1
     4    32    22    1
     5    22    23   ar
     6    23    24   ar
     7    24    25   ar
     8    25    26   ar
     9    26    27   ar
    10    27    28    1
    11    27    29   ar
    12    29    30   ar
    13    30    31   ar
    14    31    21    1
    15    21    36    1
    16    36    37    1
    17    36    38    1
    18    21     1    1
    19     1     2    2
    20     1     3    2
    21     1     4    1
    22     4     5   ar
    23     5     6   ar
    24     6     7   ar
    25     7    10    1
    26    10    11    1
    27    11    12    1
    28    12    13    1
    29    13    14    1
    30    14    15    1
    31    15    16    1
    32    16    17    1
    33    17    18    1
    34    17    19    1
    35    19    20    1
    36     7     8   ar
    37     8     9   ar
    38    31    22   ar
    39     9     4   ar
    40    30    25   ar
    41    20    14    1
@<TRIPOS>MOLECULE
*****
 38 41 0 0 0
SMALL
GASTEIGER

@<TRIPOS>ATOM
      1 S         142.0456  141.9011  162.7133 S.O2    1  UNL1        0.0806
      2 O         141.4986  141.5061  161.3736 O.2     1  UNL1       -0.1496
      3 O         142.5926  142.2962  164.0530 O.2     1  UNL1       -0.1496
      4 C         141.3416  140.7365  163.3442 C.ar    1  UNL1        0.1255
      5 C         142.0709  139.8554  164.3146 C.ar    1  UNL1        0.0199
      6 C         141.3670  138.6907  164.9455 C.ar    1  UNL1       -0.0029
      7 C         139.9337  138.4072  164.6059 C.ar    1  UNL1       -0.0221
      8 C         139.2044  139.2883  163.6355 C.ar    1  UNL1       -0.0029
      9 C         139.9083  140.4529  163.0046 C.ar    1  UNL1        0.0199
     10 C         139.2297  137.2426  165.2368 C.3     1  UNL1        0.0264
     11 C         138.1295  137.4789  166.2286 C.3     1  UNL1        0.0047
     12 C         137.8221  138.8727  166.6900 C.3     1  UNL1        0.0003
     13 C         138.3274  139.3515  168.0187 C.3     1  UNL1        0.0001
     14 C         139.6063  140.1312  168.0979 C.3     1  UNL1        0.0028
     15 C         139.8752  141.2329  167.1160 C.3     1  UNL1        0.0174
     16 C         141.1541  142.0127  167.1952 C.3     1  UNL1        0.0721
     17 N         142.1643  141.6908  168.2563 N.3     1  UNL1       -0.2715
     18 C         143.4432  142.4705  168.3356 C.3     1  UNL1        0.0896
     19 C         141.8954  140.5891  169.2382 C.3     1  UNL1        0.0721
     20 C         140.6165  139.8093  169.1590 C.3     1  UNL1        0.0174
     21 N         142.7496  143.0658  162.0824 N.pl3   1  UNL1       -0.1328
     22 C         141.0016  144.8825  161.4549 C.ar    1  UNL1       -0.0070
     23 C         140.3023  145.7086  160.4165 C.ar    1  UNL1       -0.0014
     24 C         140.6516  145.5442  158.9670 C.ar    1  UNL1        0.0207
     25 C         141.7003  144.5536  158.5560 C.ar    1  UNL1        0.1036
     26 N         142.2518  144.1747  157.2136 N.ar    1  UNL1       -0.1692
     27 N         143.2920  143.1144  157.4223 N.ar    1  UNL1       -0.2473
     28 C         144.0991  142.4475  156.3482 C.3     1  UNL1        0.1538
     29 C         143.3834  142.8380  158.8938 C.ar    1  UNL1        0.0979
     30 C         142.3996  143.7275  159.5945 C.ar    1  UNL1        0.0528
     31 C         142.0503  143.8919  161.0439 C.ar    1  UNL1        0.0731
     32 C         140.6523  145.0470  162.9044 C.3     1  UNL1        0.0277
     33 C         138.9670  144.7454  164.8586 C.3     1  UNL1        0.0003
     34 C         139.3529  144.5109  163.4282 C.3     1  UNL1        0.0044
     35 C         138.4394  143.7404  162.5216 C.3     1  UNL1        0.0003
     36 C         144.1530  143.4043  162.4899 C.3     1  UNL1        0.4200
     37 F         145.2612  142.4223  162.2496 F       1  UNL1       -0.1736
     38 F         144.4480  144.7246  163.1377 F       1  UNL1       -0.1736
@<TRIPOS>BOND
     1    33    34    1
     2    34    35    1
     3    34    32    1
     4    32    22    1
     5    22    23   ar
     6    23    24   ar
     7    24    25   ar
     8    25    26   ar
     9    26    27   ar
    10    27    28    1
    11    27    29   ar
    12    29    30   ar
    13    30    31   ar
    14    31    21    1
    15    21    36    1
    16    36    37    1
    17    36    38    1
    18    21     1    1
    19     1     2    2
    20     1     3    2
    21     1     4    1
    22     4     5   ar
    23     5     6   ar
    24     6     7   ar
    25     7    10    1
    26    10    11    1
    27    11    12    1
    28    12    13    1
    29    13    14    1
    30    14    15    1
    31    15    16    1
    32    16    17    1
    33    17    18    1
    34    17    19    1
    35    19    20    1
    36     7     8   ar
    37     8     9   ar
    38    31    22   ar
    39     9     4   ar
    40    30    25   ar
    41    20    14    1
@<TRIPOS>MOLECULE
*****
 38 41 0 0 0
SMALL
GASTEIGER

@<TRIPOS>ATOM
      1 S         142.5360  140.2444  162.5902 S.O2    1  UNL1        0.0806
      2 O         143.3003  141.5313  162.6899 O.2     1  UNL1       -0.1496
      3 O         141.7717  138.9576  162.4903 O.2     1  UNL1       -0.1496
      4 C         142.5810  140.1020  164.0827 C.ar    1  UNL1        0.1255
      5 C         142.7556  141.3156  164.9469 C.ar    1  UNL1        0.0199
      6 C         142.8005  141.1733  166.4395 C.ar    1  UNL1       -0.0029
      7 C         142.6709  139.8174  167.0678 C.ar    1  UNL1       -0.0221
      8 C         142.4963  138.6039  166.2036 C.ar    1  UNL1       -0.0029
      9 C         142.4513  138.7462  164.7110 C.ar    1  UNL1        0.0199
     10 C         142.7158  139.6750  168.5603 C.3     1  UNL1        0.0264
     11 C         141.4805  139.9215  169.3748 C.3     1  UNL1        0.0047
     12 C         140.3022  140.6159  168.7589 C.3     1  UNL1        0.0003
     13 C         139.1454  139.8137  168.2409 C.3     1  UNL1        0.0001
     14 C         138.9686  139.6202  166.7640 C.3     1  UNL1        0.0028
     15 C         139.0501  140.7977  165.8382 C.3     1  UNL1        0.0174
     16 C         138.8733  140.6043  164.3613 C.3     1  UNL1        0.0721
     17 N         138.6150  139.2334  163.8101 N.3     1  UNL1       -0.2715
     18 C         138.4382  139.0399  162.3332 C.3     1  UNL1        0.0896
     19 C         138.5336  138.0559  164.7358 C.3     1  UNL1        0.0721
     20 C         138.7104  138.2493  166.2127 C.3     1  UNL1        0.0174
     21 N         142.4911  140.3869  161.0976 N.pl3   1  UNL1       -0.1328
     22 C         140.7109  139.5928  159.3799 C.ar    1  UNL1       -0.0070
     23 C         139.3969  139.7923  158.6848 C.ar    1  UNL1       -0.0014
     24 C         138.5487  140.9854  159.0121 C.ar    1  UNL1        0.0207
     25 C         139.0147  141.9790  160.0346 C.ar    1  UNL1        0.1036
     26 N         138.3987  143.2414  160.5610 N.ar    1  UNL1       -0.1692
     27 N         139.3322  143.8220  161.5815 N.ar    1  UNL1       -0.2473
     28 C         139.1116  145.0845  162.3609 C.3     1  UNL1        0.1538
     29 C         140.5251  142.9186  161.6858 C.ar    1  UNL1        0.0979
     30 C         140.3288  141.7795  160.7298 C.ar    1  UNL1        0.0528
     31 C         141.1770  140.5864  160.4024 C.ar    1  UNL1        0.0731
     32 C         141.5592  138.3997  159.0525 C.3     1  UNL1        0.0277
     33 C         142.5151  139.5443  156.9251 C.3     1  UNL1        0.0003
     34 C         142.2305  138.3012  157.7148 C.3     1  UNL1        0.0044
     35 C         142.6173  136.9595  157.1667 C.3     1  UNL1        0.0003
     36 C         143.7603  140.3299  160.3002 C.3     1  UNL1        0.4200
     37 F         144.1044  141.4448  159.3574 F       1  UNL1       -0.1736
     38 F         144.6853  139.1581  160.4456 F       1  UNL1       -0.1736
@<TRIPOS>BOND
     1    33    34    1
     2    34    35    1
     3    34    32    1
     4    32    22    1
     5    22    23   ar
     6    23    24   ar
     7    24    25   ar
     8    25    26   ar
     9    26    27   ar
    10    27    28    1
    11    27    29   ar
    12    29    30   ar
    13    30    31   ar
    14    31    21    1
    15    21    36    1
    16    36    37    1
    17    36    38    1
    18    21     1    1
    19     1     2    2
    20     1     3    2
    21     1     4    1
    22     4     5   ar
    23     5     6   ar
    24     6     7   ar
    25     7    10    1
    26    10    11    1
    27    11    12    1
    28    12    13    1
    29    13    14    1
    30    14    15    1
    31    15    16    1
    32    16    17    1
    33    17    18    1
    34    17    19    1
    35    19    20    1
    36     7     8   ar
    37     8     9   ar
    38    31    22   ar
    39     9     4   ar
    40    30    25   ar
    41    20    14    1
@<TRIPOS>MOLECULE
*****
 38 41 0 0 0
SMALL
GASTEIGER

@<TRIPOS>ATOM
      1 S         142.0571  140.0988  161.8897 S.O2    1  UNL1        0.0806
      2 O         141.0349  141.1966  161.8774 O.2     1  UNL1       -0.1496
      3 O         143.0793  139.0011  161.9019 O.2     1  UNL1       -0.1496
      4 C         142.0673  140.1251  163.3894 C.ar    1  UNL1        0.1255
      5 C         142.3571  138.8708  164.1595 C.ar    1  UNL1        0.0199
      6 C         142.3673  138.8970  165.6592 C.ar    1  UNL1       -0.0029
      7 C         142.0876  140.1773  166.3889 C.ar    1  UNL1       -0.0221
      8 C         141.7978  141.4315  165.6188 C.ar    1  UNL1       -0.0029
      9 C         141.7876  141.4054  164.1191 C.ar    1  UNL1        0.0199
     10 C         142.0978  140.2036  167.8886 C.3     1  UNL1        0.0264
     11 C         140.8379  139.9215  168.6522 C.3     1  UNL1        0.0047
     12 C         139.5063  140.2761  168.0596 C.3     1  UNL1        0.0003
     13 C         138.6718  139.2169  167.4024 C.3     1  UNL1        0.0001
     14 C         138.5838  139.1525  165.9064 C.3     1  UNL1        0.0028
     15 C         138.8767  137.8661  165.1926 C.3     1  UNL1        0.0174
     16 C         138.7887  137.8016  163.6966 C.3     1  UNL1        0.0721
     17 N         138.4077  139.0234  162.9143 N.3     1  UNL1       -0.2715
     18 C         138.3196  138.9589  161.4183 C.3     1  UNL1        0.0896
     19 C         138.1148  140.3098  163.6282 C.3     1  UNL1        0.0721
     20 C         138.2028  140.3743  165.1242 C.3     1  UNL1        0.0174
     21 N         142.0469  140.0726  160.3899 N.pl3   1  UNL1       -0.1328
     22 C         143.2277  142.2686  159.6594 C.ar    1  UNL1       -0.0070
     23 C         143.2169  143.5543  158.8870 C.ar    1  UNL1       -0.0014
     24 C         142.0146  143.9299  158.0724 C.ar    1  UNL1        0.0207
     25 C         140.8231  143.0197  158.0305 C.ar    1  UNL1        0.1036
     26 N         139.5053  143.1235  157.3215 N.ar    1  UNL1       -0.1692
     27 N         138.7016  141.9019  157.6558 N.ar    1  UNL1       -0.2473
     28 C         137.3195  141.5933  157.1613 C.3     1  UNL1        0.1538
     29 C         139.5227  141.0431  158.5714 C.ar    1  UNL1        0.0979
     30 C         140.8338  141.7340  158.8029 C.ar    1  UNL1        0.0528
     31 C         142.0362  141.3584  159.6174 C.ar    1  UNL1        0.0731
     32 C         144.4300  141.8929  160.4739 C.3     1  UNL1        0.0277
     33 C         145.4443  141.7349  162.8606 C.3     1  UNL1        0.0003
     34 C         144.6140  142.4662  161.8478 C.3     1  UNL1        0.0044
     35 C         143.9677  143.7708  162.2090 C.3     1  UNL1        0.0003
     36 C         142.0475  138.7607  159.6627 C.3     1  UNL1        0.4200
     37 F         143.2994  138.2740  158.9948 F       1  UNL1       -0.1736
     38 F         140.7963  137.9356  159.6033 F       1  UNL1       -0.1736
@<TRIPOS>BOND
     1    33    34    1
     2    34    35    1
     3    34    32    1
     4    32    22    1
     5    22    23   ar
     6    23    24   ar
     7    24    25   ar
     8    25    26   ar
     9    26    27   ar
    10    27    28    1
    11    27    29   ar
    12    29    30   ar
    13    30    31   ar
    14    31    21    1
    15    21    36    1
    16    36    37    1
    17    36    38    1
    18    21     1    1
    19     1     2    2
    20     1     3    2
    21     1     4    1
    22     4     5   ar
    23     5     6   ar
    24     6     7   ar
    25     7    10    1
    26    10    11    1
    27    11    12    1
    28    12    13    1
    29    13    14    1
    30    14    15    1
    31    15    16    1
    32    16    17    1
    33    17    18    1
    34    17    19    1
    35    19    20    1
    36     7     8   ar
    37     8     9   ar
    38    31    22   ar
    39     9     4   ar
    40    30    25   ar
    41    20    14    1
@<TRIPOS>MOLECULE
*****
 38 41 0 0 0
SMALL
GASTEIGER

@<TRIPOS>ATOM
      1 S         139.7972  139.7666  161.4036 S.O2    1  UNL1        0.0806
      2 O         138.4587  140.3671  161.0904 O.2     1  UNL1       -0.1496
      3 O         141.1356  139.1660  161.7167 O.2     1  UNL1       -0.1496
      4 C         139.3513  139.5075  162.8121 C.ar    1  UNL1        0.1255
      5 C         138.4885  140.5085  163.5217 C.ar    1  UNL1        0.0199
      6 C         138.0426  140.2495  164.9303 C.ar    1  UNL1       -0.0029
      7 C         138.4595  138.9895  165.6292 C.ar    1  UNL1       -0.0221
      8 C         139.3223  137.9885  164.9196 C.ar    1  UNL1       -0.0029
      9 C         139.7682  138.2475  163.5111 C.ar    1  UNL1        0.0199
     10 C         138.0136  138.7304  167.0378 C.3     1  UNL1        0.0264
     11 C         138.5176  139.5951  168.1551 C.3     1  UNL1        0.0047
     12 C         139.9659  139.9816  168.2097 C.3     1  UNL1        0.0003
     13 C         140.4273  141.2545  167.5641 C.3     1  UNL1        0.0001
     14 C         141.2880  141.2038  166.3367 C.3     1  UNL1        0.0028
     15 C         142.2130  140.0435  166.1168 C.3     1  UNL1        0.0174
     16 C         143.0738  139.9926  164.8895 C.3     1  UNL1        0.0721
     17 N         143.0097  141.1020  163.8820 N.3     1  UNL1       -0.2715
     18 C         143.8705  141.0513  162.6546 C.3     1  UNL1        0.0896
     19 C         142.0848  142.2623  164.1019 C.3     1  UNL1        0.0721
     20 C         141.2240  142.3132  165.3292 C.3     1  UNL1        0.0174
     21 N         140.2430  140.0257  159.9949 N.pl3   1  UNL1       -0.1328
     22 C         142.6786  140.2878  159.1293 C.ar    1  UNL1       -0.0070
     23 C         143.8791  141.1485  158.8690 C.ar    1  UNL1       -0.0014
     24 C         143.8446  142.6080  159.2139 C.ar    1  UNL1        0.0207
     25 C         142.6096  143.2066  159.8191 C.ar    1  UNL1        0.1036
     26 N         142.2836  144.6027  160.2604 N.ar    1  UNL1       -0.1692
     27 N         140.8815  144.6047  160.7935 N.ar    1  UNL1       -0.2473
     28 C         140.1486  145.7929  161.3421 C.3     1  UNL1        0.1538
     29 C         140.3410  143.2099  160.6817 C.ar    1  UNL1        0.0979
     30 C         141.4091  142.3459  160.0795 C.ar    1  UNL1        0.0528
     31 C         141.4435  140.8865  159.7346 C.ar    1  UNL1        0.0731
     32 C         142.7130  138.8284  158.7844 C.3     1  UNL1        0.0277
     33 C         142.9220  136.9795  156.9712 C.3     1  UNL1        0.0003
     34 C         142.5968  138.3930  157.3537 C.3     1  UNL1        0.0044
     35 C         142.1554  139.3710  156.3055 C.3     1  UNL1        0.0003
     36 C         139.4883  139.4241  158.8467 C.3     1  UNL1        0.4200
     37 F         139.4942  137.9381  158.6417 F       1  UNL1       -0.1736
     38 F         138.7277  140.3084  157.9036 F       1  UNL1       -0.1736
@<TRIPOS>BOND
     1    33    34    1
     2    34    35    1
     3    34    32    1
     4    32    22    1
     5    22    23   ar
     6    23    24   ar
     7    24    25   ar
     8    25    26   ar
     9    26    27   ar
    10    27    28    1
    11    27    29   ar
    12    29    30   ar
    13    30    31   ar
    14    31    21    1
    15    21    36    1
    16    36    37    1
    17    36    38    1
    18    21     1    1
    19     1     2    2
    20     1     3    2
    21     1     4    1
    22     4     5   ar
    23     5     6   ar
    24     6     7   ar
    25     7    10    1
    26    10    11    1
    27    11    12    1
    28    12    13    1
    29    13    14    1
    30    14    15    1
    31    15    16    1
    32    16    17    1
    33    17    18    1
    34    17    19    1
    35    19    20    1
    36     7     8   ar
    37     8     9   ar
    38    31    22   ar
    39     9     4   ar
    40    30    25   ar
    41    20    14    1
