@<TRIPOS>MOLECULE
*****
 25 27 0 0 0
SMALL
GASTEIGER

@<TRIPOS>ATOM
      1 C         138.8162  141.7984  163.3863 C.2     1  UNL1        0.2691
      2 O         137.4886  141.1612  163.1009 O.2     1  UNL1       -0.2682
      3 N         139.7850  141.1292  164.3156 N.am    1  UNL1       -0.2719
      4 C         139.4263  139.8228  164.9594 C.3     1  UNL1        0.1111
      5 C         140.3951  139.1536  165.8887 C.3     1  UNL1        0.0942
      6 N         141.7227  139.7908  166.1741 N.3     1  UNL1       -0.2632
      7 C         142.0814  141.0973  165.5303 C.3     1  UNL1        0.0942
      8 C         141.1126  141.7664  164.6011 C.3     1  UNL1        0.1111
      9 C         140.3736  145.3907  159.8437 C.3     1  UNL1        0.1538
     10 N         139.8908  144.7561  161.1141 N.ar    1  UNL1       -0.2467
     11 C         139.5631  145.4745  162.3895 C.ar    1  UNL1        0.1035
     12 C         139.1207  144.4540  163.3959 C.ar    1  UNL1        0.0771
     13 BR        138.6982  144.7336  164.8078 Br      1  UNL1       -0.0456
     14 C         139.1749  143.1049  162.7425 C.ar    1  UNL1        0.1618
     15 N         139.6509  143.2916  161.3324 N.ar    1  UNL1       -0.1640
     16 C         142.6915  139.1216  167.1034 C.3     1  UNL1        0.1424
     17 C         142.5702  139.3222  168.5849 C.2     1  UNL1        0.1892
     18 O         143.2008  138.3415  169.5287 O.2     1  UNL1       -0.2899
     19 C         141.8182  140.5034  169.1228 C.ar    1  UNL1        0.0362
     20 C         142.5103  141.8249  169.2797 C.ar    1  UNL1        0.0052
     21 C         141.7583  143.0061  169.8175 C.ar    1  UNL1        0.0297
     22 C         140.3143  142.8658  170.1985 C.ar    1  UNL1        0.1401
     23 F         139.5624  144.0471  170.7364 F       1  UNL1       -0.2042
     24 C         139.6223  141.5443  170.0417 C.ar    1  UNL1        0.0297
     25 C         140.3742  140.3631  169.5038 C.ar    1  UNL1        0.0052
@<TRIPOS>BOND
     1     9    10    1
     2    10    11   ar
     3    11    12   ar
     4    12    13    1
     5    12    14   ar
     6    14     1    1
     7     1     2    2
     8     1     3   am
     9     3     4    1
    10     4     5    1
    11     5     6    1
    12     6    16    1
    13    16    17    1
    14    17    18    2
    15    17    19    1
    16    19    20   ar
    17    20    21   ar
    18    21    22   ar
    19    22    23    1
    20    22    24   ar
    21    24    25   ar
    22     6     7    1
    23     7     8    1
    24    14    15   ar
    25    15    10   ar
    26     8     3    1
    27    25    19   ar
@<TRIPOS>MOLECULE
*****
 25 27 0 0 0
SMALL
GASTEIGER

@<TRIPOS>ATOM
      1 C         143.0928  143.9847  162.2840 C.2     1  UNL1        0.2691
      2 O         144.3419  144.7864  162.5005 O.2     1  UNL1       -0.2682
      3 N         142.7344  142.8826  163.2365 N.am    1  UNL1       -0.2719
      4 C         143.6251  142.5823  164.4053 C.3     1  UNL1        0.1111
      5 C         143.2667  141.4803  165.3577 C.3     1  UNL1        0.0942
      6 N         142.0176  140.6786  165.1412 N.3     1  UNL1       -0.2632
      7 C         141.1268  140.9789  163.9723 C.3     1  UNL1        0.0942
      8 C         141.4853  142.0809  163.0199 C.3     1  UNL1        0.1111
      9 C         141.1203  144.1655  157.3894 C.3     1  UNL1        0.1538
     10 N         141.2954  144.3681  158.8653 N.ar    1  UNL1       -0.2467
     11 C         140.3672  145.1263  159.7674 C.ar    1  UNL1        0.1035
     12 C         140.9276  145.0749  161.1579 C.ar    1  UNL1        0.0771
     13 BR        140.3201  145.7031  162.3770 Br      1  UNL1       -0.0456
     14 C         142.2021  144.2850  161.1151 C.ar    1  UNL1        0.1618
     15 N         142.4294  143.8482  159.6982 N.ar    1  UNL1       -0.1640
     16 C         141.6592  139.5765  166.0936 C.3     1  UNL1        0.1424
     17 C         142.0515  139.6763  167.5379 C.2     1  UNL1        0.1892
     18 O         143.1835  138.8462  168.0667 O.2     1  UNL1       -0.2899
     19 C         141.3118  140.6062  168.4535 C.ar    1  UNL1        0.0362
     20 C         140.0848  140.1310  169.1736 C.ar    1  UNL1        0.0052
     21 C         139.3452  141.0609  170.0891 C.ar    1  UNL1        0.0297
     22 C         139.8326  142.4660  170.2845 C.ar    1  UNL1        0.1401
     23 F         139.0929  143.3959  171.2001 F       1  UNL1       -0.2042
     24 C         141.0596  142.9412  169.5645 C.ar    1  UNL1        0.0297
     25 C         141.7992  142.0113  168.6490 C.ar    1  UNL1        0.0052
@<TRIPOS>BOND
     1     9    10    1
     2    10    11   ar
     3    11    12   ar
     4    12    13    1
     5    12    14   ar
     6    14     1    1
     7     1     2    2
     8     1     3   am
     9     3     4    1
    10     4     5    1
    11     5     6    1
    12     6    16    1
    13    16    17    1
    14    17    18    2
    15    17    19    1
    16    19    20   ar
    17    20    21   ar
    18    21    22   ar
    19    22    23    1
    20    22    24   ar
    21    24    25   ar
    22     6     7    1
    23     7     8    1
    24    14    15   ar
    25    15    10   ar
    26     8     3    1
    27    25    19   ar
@<TRIPOS>MOLECULE
*****
 25 27 0 0 0
SMALL
GASTEIGER

@<TRIPOS>ATOM
      1 C         139.3840  139.7005  165.9383 C.2     1  UNL1        0.2691
      2 O         138.9208  138.3838  165.3890 O.2     1  UNL1       -0.2682
      3 N         139.1311  140.9642  165.1707 N.am    1  UNL1       -0.2719
      4 C         138.4150  140.9111  163.8537 C.3     1  UNL1        0.1111
      5 C         138.1621  142.1748  163.0861 C.3     1  UNL1        0.0942
      6 N         138.6253  143.4915  163.6355 N.3     1  UNL1       -0.2632
      7 C         139.3414  143.5445  164.9524 C.3     1  UNL1        0.0942
      8 C         139.5943  142.2809  165.7200 C.3     1  UNL1        0.1111
      9 C         140.3504  140.0093  171.1201 C.3     1  UNL1        0.1538
     10 N         140.5443  139.8955  169.6371 N.ar    1  UNL1       -0.2467
     11 C         141.8599  139.7750  168.9265 C.ar    1  UNL1        0.1035
     12 C         141.5853  139.6873  167.4545 C.ar    1  UNL1        0.0771
     13 BR        142.6152  139.5562  166.3718 Br      1  UNL1       -0.0456
     14 C         140.1001  139.7536  167.2552 C.ar    1  UNL1        0.1618
     15 N         139.4568  139.8823  168.6042 N.ar    1  UNL1       -0.1640
     16 C         138.3724  144.7551  162.8678 C.3     1  UNL1        0.1424
     17 C         139.5034  145.4437  162.1630 C.2     1  UNL1        0.1892
     18 O         139.2310  146.6353  161.2937 O.2     1  UNL1       -0.2899
     19 C         140.9070  144.9406  162.3277 C.ar    1  UNL1        0.0362
     20 C         141.4324  143.8718  161.4158 C.ar    1  UNL1        0.0052
     21 C         142.8359  143.3687  161.5805 C.ar    1  UNL1        0.0297
     22 C         143.7139  143.9345  162.6570 C.ar    1  UNL1        0.1401
     23 F         145.1175  143.4315  162.8216 F       1  UNL1       -0.2042
     24 C         143.1885  145.0034  163.5688 C.ar    1  UNL1        0.0297
     25 C         141.7851  145.5064  163.4042 C.ar    1  UNL1        0.0052
@<TRIPOS>BOND
     1     9    10    1
     2    10    11   ar
     3    11    12   ar
     4    12    13    1
     5    12    14   ar
     6    14     1    1
     7     1     2    2
     8     1     3   am
     9     3     4    1
    10     4     5    1
    11     5     6    1
    12     6    16    1
    13    16    17    1
    14    17    18    2
    15    17    19    1
    16    19    20   ar
    17    20    21   ar
    18    21    22   ar
    19    22    23    1
    20    22    24   ar
    21    24    25   ar
    22     6     7    1
    23     7     8    1
    24    14    15   ar
    25    15    10   ar
    26     8     3    1
    27    25    19   ar
@<TRIPOS>MOLECULE
*****
 25 27 0 0 0
SMALL
GASTEIGER

@<TRIPOS>ATOM
      1 C         138.5088  143.3187  161.8209 C.2     1  UNL1        0.2691
      2 O         137.3083  143.9614  162.4500 O.2     1  UNL1       -0.2682
      3 N         139.8789  143.5936  162.3663 N.am    1  UNL1       -0.2719
      4 C         140.0484  144.5112  163.5407 C.3     1  UNL1        0.1111
      5 C         141.4185  144.7861  164.0860 C.3     1  UNL1        0.0942
      6 N         142.6189  144.1434  163.4569 N.3     1  UNL1       -0.2632
      7 C         142.4494  143.2258  162.2825 C.3     1  UNL1        0.0942
      8 C         141.0794  142.9509  161.7372 C.3     1  UNL1        0.1111
      9 C         138.1214  141.5118  156.8747 C.3     1  UNL1        0.1538
     10 N         138.1612  141.5705  158.3730 N.ar    1  UNL1       -0.2467
     11 C         137.9954  140.4075  159.3057 C.ar    1  UNL1        0.1035
     12 C         138.1055  140.9208  160.7108 C.ar    1  UNL1        0.0771
     13 BR        138.0002  140.0983  161.9607 Br      1  UNL1       -0.0456
     14 C         138.3392  142.4011  160.6465 C.ar    1  UNL1        0.1618
     15 N         138.3736  142.8026  159.2017 N.ar    1  UNL1       -0.1640
     16 C         143.9890  144.4183  164.0022 C.3     1  UNL1        0.1424
     17 C         144.5038  143.6295  165.1696 C.2     1  UNL1        0.1892
     18 O         145.3861  144.2873  166.1888 O.2     1  UNL1       -0.2899
     19 C         144.1363  142.1827  165.3177 C.ar    1  UNL1        0.0362
     20 C         144.7652  141.1539  164.4255 C.ar    1  UNL1        0.0052
     21 C         144.3977  139.7073  164.5737 C.ar    1  UNL1        0.0297
     22 C         143.4013  139.2893  165.6141 C.ar    1  UNL1        0.1401
     23 F         143.0337  137.8426  165.7623 F       1  UNL1       -0.2042
     24 C         142.7724  140.3181  166.5064 C.ar    1  UNL1        0.0297
     25 C         143.1399  141.7648  166.3582 C.ar    1  UNL1        0.0052
@<TRIPOS>BOND
     1     9    10    1
     2    10    11   ar
     3    11    12   ar
     4    12    13    1
     5    12    14   ar
     6    14     1    1
     7     1     2    2
     8     1     3   am
     9     3     4    1
    10     4     5    1
    11     5     6    1
    12     6    16    1
    13    16    17    1
    14    17    18    2
    15    17    19    1
    16    19    20   ar
    17    20    21   ar
    18    21    22   ar
    19    22    23    1
    20    22    24   ar
    21    24    25   ar
    22     6     7    1
    23     7     8    1
    24    14    15   ar
    25    15    10   ar
    26     8     3    1
    27    25    19   ar
@<TRIPOS>MOLECULE
*****
 25 27 0 0 0
SMALL
GASTEIGER

@<TRIPOS>ATOM
      1 C         138.6944  143.5994  162.5342 C.2     1  UNL1        0.2691
      2 O         137.4071  144.2726  162.9084 O.2     1  UNL1       -0.2682
      3 N         139.1984  142.4418  163.3441 N.am    1  UNL1       -0.2719
      4 C         138.4152  141.9573  164.5281 C.3     1  UNL1        0.1111
      5 C         138.9193  140.7997  165.3379 C.3     1  UNL1        0.0942
      6 N         140.2065  140.1266  164.9638 N.3     1  UNL1       -0.2632
      7 C         140.9896  140.6111  163.7798 C.3     1  UNL1        0.0942
      8 C         140.4856  141.7687  162.9700 C.3     1  UNL1        0.1111
      9 C         140.2876  144.4431  157.5713 C.3     1  UNL1        0.1538
     10 N         140.2098  144.4717  159.0690 N.ar    1  UNL1       -0.2467
     11 C         141.1556  145.1873  159.9875 C.ar    1  UNL1        0.1035
     12 C         140.7030  144.9476  161.3973 C.ar    1  UNL1        0.0771
     13 BR        141.3605  145.4784  162.6366 Br      1  UNL1       -0.0456
     14 C         139.4775  144.0839  161.3502 C.ar    1  UNL1        0.1618
     15 N         139.1727  143.7898  159.9113 N.ar    1  UNL1       -0.1640
     16 C         140.7105  138.9689  165.7737 C.3     1  UNL1        0.1424
     17 C         142.1076  138.9871  166.3193 C.2     1  UNL1        0.1892
     18 O         143.1211  138.0010  165.8189 O.2     1  UNL1       -0.2899
     19 C         142.4913  139.9915  167.3653 C.ar    1  UNL1        0.0362
     20 C         142.8277  141.3979  166.9671 C.ar    1  UNL1        0.0052
     21 C         143.2113  142.4022  168.0131 C.ar    1  UNL1        0.0297
     22 C         143.2587  142.0000  169.4574 C.ar    1  UNL1        0.1401
     23 F         143.6424  143.0043  170.5034 F       1  UNL1       -0.2042
     24 C         142.9223  140.5935  169.8556 C.ar    1  UNL1        0.0297
     25 C         142.5386  139.5892  168.8096 C.ar    1  UNL1        0.0052
@<TRIPOS>BOND
     1     9    10    1
     2    10    11   ar
     3    11    12   ar
     4    12    13    1
     5    12    14   ar
     6    14     1    1
     7     1     2    2
     8     1     3   am
     9     3     4    1
    10     4     5    1
    11     5     6    1
    12     6    16    1
    13    16    17    1
    14    17    18    2
    15    17    19    1
    16    19    20   ar
    17    20    21   ar
    18    21    22   ar
    19    22    23    1
    20    22    24   ar
    21    24    25   ar
    22     6     7    1
    23     7     8    1
    24    14    15   ar
    25    15    10   ar
    26     8     3    1
    27    25    19   ar
@<TRIPOS>MOLECULE
*****
 25 27 0 0 0
SMALL
GASTEIGER

@<TRIPOS>ATOM
      1 C         142.2418  141.3924  162.7873 C.2     1  UNL1        0.2691
      2 O         143.5124  140.6698  162.4504 O.2     1  UNL1       -0.2682
      3 N         141.4073  140.9404  163.9489 N.am    1  UNL1       -0.2719
      4 C         141.8434  139.7659  164.7737 C.3     1  UNL1        0.1111
      5 C         141.0089  139.3139  165.9353 C.3     1  UNL1        0.0942
      6 N         139.7384  140.0366  166.2721 N.3     1  UNL1       -0.2632
      7 C         139.3023  141.2111  165.4474 C.3     1  UNL1        0.0942
      8 C         140.1368  141.6630  164.2858 C.3     1  UNL1        0.1111
      9 C         139.9577  144.3233  159.0359 C.3     1  UNL1        0.1538
     10 N         140.7558  143.9141  160.2382 N.ar    1  UNL1       -0.2467
     11 C         141.5135  144.8346  161.1485 C.ar    1  UNL1        0.1035
     12 C         142.1624  144.0020  162.2142 C.ar    1  UNL1        0.0771
     13 BR        143.0177  144.5145  163.3348 Br      1  UNL1       -0.0456
     14 C         141.8057  142.5669  161.9625 C.ar    1  UNL1        0.1618
     15 N         140.9364  142.5126  160.7413 N.ar    1  UNL1       -0.1640
     16 C         138.9039  139.5846  167.4338 C.3     1  UNL1        0.1424
     17 C         139.2502  140.0288  168.8239 C.2     1  UNL1        0.1892
     18 O         138.2606  139.8502  169.9369 O.2     1  UNL1       -0.2899
     19 C         140.5864  140.6518  169.1012 C.ar    1  UNL1        0.0362
     20 C         140.7964  142.1165  168.8557 C.ar    1  UNL1        0.0052
     21 C         142.1325  142.7394  169.1330 C.ar    1  UNL1        0.0297
     22 C         143.2585  141.8975  169.6558 C.ar    1  UNL1        0.1401
     23 F         144.5946  142.5204  169.9330 F       1  UNL1       -0.2042
     24 C         143.0484  140.4327  169.9013 C.ar    1  UNL1        0.0297
     25 C         141.7124  139.8099  169.6240 C.ar    1  UNL1        0.0052
@<TRIPOS>BOND
     1     9    10    1
     2    10    11   ar
     3    11    12   ar
     4    12    13    1
     5    12    14   ar
     6    14     1    1
     7     1     2    2
     8     1     3   am
     9     3     4    1
    10     4     5    1
    11     5     6    1
    12     6    16    1
    13    16    17    1
    14    17    18    2
    15    17    19    1
    16    19    20   ar
    17    20    21   ar
    18    21    22   ar
    19    22    23    1
    20    22    24   ar
    21    24    25   ar
    22     6     7    1
    23     7     8    1
    24    14    15   ar
    25    15    10   ar
    26     8     3    1
    27    25    19   ar
@<TRIPOS>MOLECULE
*****
 25 27 0 0 0
SMALL
GASTEIGER

@<TRIPOS>ATOM
      1 C         139.6734  144.4093  162.1106 C.2     1  UNL1        0.2691
      2 O         138.4390  145.1547  162.5237 O.2     1  UNL1       -0.2682
      3 N         140.4709  143.6543  163.1326 N.am    1  UNL1       -0.2719
      4 C         140.0339  143.6449  164.5674 C.3     1  UNL1        0.1111
      5 C         140.8314  142.8900  165.5893 C.3     1  UNL1        0.0942
      6 N         142.0657  142.1446  165.1762 N.3     1  UNL1       -0.2632
      7 C         142.5027  142.1540  163.7413 C.3     1  UNL1        0.0942
      8 C         141.7052  142.9089  162.7195 C.3     1  UNL1        0.1111
      9 C         142.0826  145.7364  157.6034 C.3     1  UNL1        0.1538
     10 N         141.2177  145.0287  158.6040 N.ar    1  UNL1       -0.2467
     11 C         140.3477  143.8376  158.3313 C.ar    1  UNL1        0.1035
     12 C         139.6633  143.4606  159.6117 C.ar    1  UNL1        0.0771
     13 BR        138.7008  142.3249  159.7957 Br      1  UNL1       -0.0456
     14 C         140.1103  144.4187  160.6757 C.ar    1  UNL1        0.1618
     15 N         141.0710  145.3878  160.0530 N.ar    1  UNL1       -0.1640
     16 C         142.8632  141.3897  166.1981 C.3     1  UNL1        0.1424
     17 C         142.4622  139.9964  166.5827 C.2     1  UNL1        0.1892
     18 O         143.0617  139.3516  167.7972 O.2     1  UNL1       -0.2899
     19 C         141.4617  139.2478  165.7528 C.ar    1  UNL1        0.0362
     20 C         141.9250  138.3883  164.6141 C.ar    1  UNL1        0.0052
     21 C         140.9245  137.6398  163.7842 C.ar    1  UNL1        0.0297
     22 C         139.4608  137.7507  164.0931 C.ar    1  UNL1        0.1401
     23 F         138.4604  137.0021  163.2631 F       1  UNL1       -0.2042
     24 C         138.9976  138.6101  165.2318 C.ar    1  UNL1        0.0297
     25 C         139.9981  139.3587  166.0616 C.ar    1  UNL1        0.0052
@<TRIPOS>BOND
     1     9    10    1
     2    10    11   ar
     3    11    12   ar
     4    12    13    1
     5    12    14   ar
     6    14     1    1
     7     1     2    2
     8     1     3   am
     9     3     4    1
    10     4     5    1
    11     5     6    1
    12     6    16    1
    13    16    17    1
    14    17    18    2
    15    17    19    1
    16    19    20   ar
    17    20    21   ar
    18    21    22   ar
    19    22    23    1
    20    22    24   ar
    21    24    25   ar
    22     6     7    1
    23     7     8    1
    24    14    15   ar
    25    15    10   ar
    26     8     3    1
    27    25    19   ar
@<TRIPOS>MOLECULE
*****
 25 27 0 0 0
SMALL
GASTEIGER

@<TRIPOS>ATOM
      1 C         142.7962  138.5407  161.0124 C.2     1  UNL1        0.2691
      2 O         144.2481  138.6865  161.3602 O.2     1  UNL1       -0.2682
      3 N         141.7935  138.2443  162.0879 N.am    1  UNL1       -0.2719
      4 C         142.2425  138.0936  163.5111 C.3     1  UNL1        0.1111
      5 C         141.2398  137.7972  164.5865 C.3     1  UNL1        0.0942
      6 N         139.7879  137.6514  164.2387 N.3     1  UNL1       -0.2632
      7 C         139.3389  137.8021  162.8155 C.3     1  UNL1        0.0942
      8 C         140.3416  138.0985  161.7401 C.3     1  UNL1        0.1111
      9 C         141.7462  137.5078  155.9418 C.3     1  UNL1        0.1538
     10 N         141.8645  138.2166  157.2584 N.ar    1  UNL1       -0.2467
     11 C         141.4478  139.6299  157.5396 C.ar    1  UNL1        0.1035
     12 C         141.7461  139.9233  158.9800 C.ar    1  UNL1        0.0771
     13 BR        141.4885  141.2208  159.6872 Br      1  UNL1       -0.0456
     14 C         142.3472  138.6914  159.5892 C.ar    1  UNL1        0.1618
     15 N         142.4204  137.6366  158.5252 N.ar    1  UNL1       -0.1640
     16 C         138.7852  137.3550  165.3142 C.3     1  UNL1        0.1424
     17 C         138.1936  138.4751  166.1175 C.2     1  UNL1        0.1892
     18 O         137.1200  138.1897  167.1254 O.2     1  UNL1       -0.2899
     19 C         138.6758  139.8808  165.9129 C.ar    1  UNL1        0.0362
     20 C         138.1017  140.7173  164.8081 C.ar    1  UNL1        0.0052
     21 C         138.5838  142.1228  164.6036 C.ar    1  UNL1        0.0297
     22 C         139.6401  142.6919  165.5039 C.ar    1  UNL1        0.1401
     23 F         140.1222  144.0975  165.2994 F       1  UNL1       -0.2042
     24 C         140.2141  141.8554  166.6087 C.ar    1  UNL1        0.0297
     25 C         139.7320  140.4498  166.8132 C.ar    1  UNL1        0.0052
@<TRIPOS>BOND
     1     9    10    1
     2    10    11   ar
     3    11    12   ar
     4    12    13    1
     5    12    14   ar
     6    14     1    1
     7     1     2    2
     8     1     3   am
     9     3     4    1
    10     4     5    1
    11     5     6    1
    12     6    16    1
    13    16    17    1
    14    17    18    2
    15    17    19    1
    16    19    20   ar
    17    20    21   ar
    18    21    22   ar
    19    22    23    1
    20    22    24   ar
    21    24    25   ar
    22     6     7    1
    23     7     8    1
    24    14    15   ar
    25    15    10   ar
    26     8     3    1
    27    25    19   ar
@<TRIPOS>MOLECULE
*****
 25 27 0 0 0
SMALL
GASTEIGER

@<TRIPOS>ATOM
      1 C         138.8038  139.4181  160.5730 C.2     1  UNL1        0.2691
      2 O         138.7837  138.0127  161.0967 O.2     1  UNL1       -0.2682
      3 N         138.4842  140.5638  161.4871 N.am    1  UNL1       -0.2719
      4 C         138.1445  140.3039  162.9248 C.3     1  UNL1        0.1111
      5 C         137.8250  141.4494  163.8388 C.3     1  UNL1        0.0942
      6 N         137.8451  142.8549  163.3152 N.3     1  UNL1       -0.2632
      7 C         138.1848  143.1148  161.8775 C.3     1  UNL1        0.0942
      8 C         138.5044  141.9692  160.9635 C.3     1  UNL1        0.1111
      9 C         138.3534  140.2829  155.3836 C.3     1  UNL1        0.1538
     10 N         138.9365  140.0755  156.7500 N.ar    1  UNL1       -0.2467
     11 C         140.3961  140.0804  157.0958 C.ar    1  UNL1        0.1035
     12 C         140.5240  139.8348  158.5700 C.ar    1  UNL1        0.0771
     13 BR        141.8072  139.7591  159.3431 Br      1  UNL1       -0.0456
     14 C         139.1435  139.6780  159.1353 C.ar    1  UNL1        0.1618
     15 N         138.1624  139.8268  158.0105 N.ar    1  UNL1       -0.1640
     16 C         137.5255  144.0005  164.2293 C.3     1  UNL1        0.1424
     17 C         138.5812  144.5473  165.1438 C.2     1  UNL1        0.1892
     18 O         138.2028  145.4917  166.2461 O.2     1  UNL1       -0.2899
     19 C         140.0154  144.1498  164.9561 C.ar    1  UNL1        0.0362
     20 C         140.8662  144.8649  163.9488 C.ar    1  UNL1        0.0052
     21 C         142.3003  144.4673  163.7612 C.ar    1  UNL1        0.0297
     22 C         142.8836  143.3547  164.5808 C.ar    1  UNL1        0.1401
     23 F         144.3178  142.9572  164.3931 F       1  UNL1       -0.2042
     24 C         142.0328  142.6396  165.5881 C.ar    1  UNL1        0.0297
     25 C         140.5987  143.0372  165.7758 C.ar    1  UNL1        0.0052
@<TRIPOS>BOND
     1     9    10    1
     2    10    11   ar
     3    11    12   ar
     4    12    13    1
     5    12    14   ar
     6    14     1    1
     7     1     2    2
     8     1     3   am
     9     3     4    1
    10     4     5    1
    11     5     6    1
    12     6    16    1
    13    16    17    1
    14    17    18    2
    15    17    19    1
    16    19    20   ar
    17    20    21   ar
    18    21    22   ar
    19    22    23    1
    20    22    24   ar
    21    24    25   ar
    22     6     7    1
    23     7     8    1
    24    14    15   ar
    25    15    10   ar
    26     8     3    1
    27    25    19   ar
