@<TRIPOS>MOLECULE
*****
 43 48 0 0 0
SMALL
GASTEIGER

@<TRIPOS>ATOM
      1 C         140.5345  141.9491  160.6464 C.3     1  UNL1        0.1631
      2 N         140.8100  143.2737  159.9986 N.ar    1  UNL1       -0.3047
      3 C         141.7206  144.3417  160.5279 C.ar    1  UNL1        0.1441
      4 N         141.6967  145.4908  159.5641 N.ar    1  UNL1       -0.2267
      5 C         140.7713  145.1330  158.4391 C.ar    1  UNL1        0.1010
      6 C         140.3569  145.8779  157.2049 C.ar    1  UNL1        0.0526
      7 C         139.3944  145.2525  156.2391 C.ar    1  UNL1        0.1690
      8 F         138.9800  145.9975  155.0048 F       1  UNL1       -0.2017
      9 C         138.8464  143.8822  156.5076 C.ar    1  UNL1        0.1689
     10 F         137.8840  143.2569  155.5418 F       1  UNL1       -0.2017
     11 C         139.2609  143.1374  157.7418 C.ar    1  UNL1        0.0507
     12 C         140.2233  143.7627  158.7076 C.ar    1  UNL1        0.0816
     13 C         142.5155  144.2726  161.7981 C.ar    1  UNL1        0.0342
     14 C         143.6921  143.3475  161.8971 C.ar    1  UNL1        0.0039
     15 C         144.4870  143.2785  163.1673 C.ar    1  UNL1        0.0115
     16 C         144.1053  144.1345  164.3384 C.ar    1  UNL1        0.0577
     17 CL        144.9003  144.0654  165.6086 Cl      1  UNL1       -0.0822
     18 C         142.9287  145.0596  164.2393 C.ar    1  UNL1        0.0115
     19 C         142.1338  145.1287  162.9693 C.ar    1  UNL1        0.0039
     20 C         140.6262  140.6869  159.8414 C.3     1  UNL1        0.0297
     21 C         141.8767  140.3763  159.0734 C.3     1  UNL1        0.0024
     22 C         141.9684  139.1139  158.2684 C.3     1  UNL1        0.0001
     23 C         140.8097  138.1622  158.2313 C.3     1  UNL1        0.0000
     24 C         139.5591  138.4727  158.9993 C.3     1  UNL1        0.0001
     25 C         139.4674  139.7351  159.8043 C.3     1  UNL1        0.0024
     26 O         138.8766  142.4869  162.5733 O.2     1  UNL1       -0.2727
     27 C         140.1672  141.8869  162.0995 C.2     1  UNL1        0.2469
     28 N         141.0905  141.2247  163.0788 N.am    1  UNL1       -0.2806
     29 H         141.9376  140.8309  162.7679 H       1  UNL1        0.1550
     30 C         140.7232  141.1625  164.5318 C.ar    1  UNL1        0.0784
     31 C         141.2646  142.1848  165.4866 C.ar    1  UNL1        0.0201
     32 C         140.8973  142.1227  166.9397 C.ar    1  UNL1        0.0383
     33 C         139.9886  141.0382  167.4378 C.ar    1  UNL1        0.1411
     34 C         139.4472  140.0159  166.4829 C.ar    1  UNL1        0.0678
     35 C         139.8145  140.0780  165.0299 C.ar    1  UNL1        0.1565
     36 F         139.2730  139.0557  164.0751 F       1  UNL1       -0.2028
     37 O         139.6213  140.9760  168.8908 O.3     1  UNL1       -0.4773
     38 C         140.6959  140.9884  169.9372 C.3     1  UNL1        0.1646
     39 C         141.9046  140.5711  170.7215 C.3     1  UNL1        0.0495
     40 C         141.4550  139.7554  169.5457 C.3     1  UNL1        0.0495
     41 C         140.3101  142.2258  170.6922 C.2     1  UNL1        0.0863
     42 O         139.9151  143.4663  169.9471 O.co2   1  UNL1       -0.5457
     43 O         140.3194  142.2228  172.1921 O.co2   1  UNL1       -0.5457
@<TRIPOS>UNITY_ATOM_ATTR
42 1
charge -1
@<TRIPOS>BOND
     1    26    27    2
     2    27    28   am
     3    28    30    1
     4    30    31   ar
     5    31    32   ar
     6    32    33   ar
     7    33    37    1
     8    37    38    1
     9    38    41    1
    10    41    42   ar
    11    41    43   ar
    12    38    39    1
    13    39    40    1
    14    33    34   ar
    15    34    35   ar
    16    35    36    1
    17    27     1    1
    18     1    20    1
    19    20    21    1
    20    21    22    1
    21    22    23    1
    22    23    24    1
    23    24    25    1
    24     1     2    1
    25     2     3   ar
    26     3    13    1
    27    13    14   ar
    28    14    15   ar
    29    15    16   ar
    30    16    17    1
    31    16    18   ar
    32    18    19   ar
    33     3     4   ar
    34     4     5   ar
    35     5     6   ar
    36     6     7   ar
    37     7     8    1
    38     7     9   ar
    39     9    10    1
    40     9    11   ar
    41    11    12   ar
    42    35    30   ar
    43    25    20    1
    44    12     2   ar
    45    40    38    1
    46    19    13   ar
    47    12     5   ar
    48    28    29    1
@<TRIPOS>MOLECULE
*****
 43 48 0 0 0
SMALL
GASTEIGER

@<TRIPOS>ATOM
      1 C         141.3643  142.0179  164.3152 C.3     1  UNL1        0.1631
      2 N         141.8290  141.0253  165.3394 N.ar    1  UNL1       -0.3047
      3 C         142.3547  139.6489  165.0581 C.ar    1  UNL1        0.1441
      4 N         142.7002  139.0077  166.3694 N.ar    1  UNL1       -0.2267
      5 C         142.3881  139.9879  167.4611 C.ar    1  UNL1        0.1010
      6 C         142.5246  139.9061  168.9526 C.ar    1  UNL1        0.0526
      7 C         142.1227  141.0713  169.8075 C.ar    1  UNL1        0.1690
      8 F         142.2592  140.9895  171.2991 F       1  UNL1       -0.2017
      9 C         141.5842  142.3182  169.1710 C.ar    1  UNL1        0.1689
     10 F         141.1823  143.4834  170.0259 F       1  UNL1       -0.2017
     11 C         141.4477  142.4000  167.6794 C.ar    1  UNL1        0.0507
     12 C         141.8497  141.2349  166.8245 C.ar    1  UNL1        0.0816
     13 C         142.5080  139.0234  163.7033 C.ar    1  UNL1        0.0342
     14 C         143.8721  138.8670  163.0995 C.ar    1  UNL1        0.0039
     15 C         144.0253  138.2415  161.7447 C.ar    1  UNL1        0.0115
     16 C         142.8145  137.7726  160.9939 C.ar    1  UNL1        0.0577
     17 CL        142.9678  137.1471  159.6391 Cl      1  UNL1       -0.0822
     18 C         141.4504  137.9290  161.5977 C.ar    1  UNL1        0.0115
     19 C         141.2971  138.5544  162.9524 C.ar    1  UNL1        0.0039
     20 C         140.0789  142.7627  164.5219 C.3     1  UNL1        0.0297
     21 C         138.7679  142.0854  164.2526 C.3     1  UNL1        0.0024
     22 C         137.4825  142.8303  164.4593 C.3     1  UNL1        0.0001
     23 C         137.5079  144.2526  164.9352 C.3     1  UNL1        0.0000
     24 C         138.8189  144.9300  165.2045 C.3     1  UNL1        0.0001
     25 C         140.1044  144.1851  164.9978 C.3     1  UNL1        0.0024
     26 O         143.5739  142.8191  163.2078 O.2     1  UNL1       -0.2727
     27 C         142.1852  142.2657  163.0844 C.2     1  UNL1        0.2469
     28 N         141.6173  141.9600  161.7301 N.am    1  UNL1       -0.2806
     29 H         140.7058  141.5968  161.6490 H       1  UNL1        0.1550
     30 C         142.4381  142.2078  160.4993 C.ar    1  UNL1        0.0784
     31 C         143.5698  141.2856  160.1545 C.ar    1  UNL1        0.0201
     32 C         144.3907  141.5334  158.9237 C.ar    1  UNL1        0.0383
     33 C         144.0799  142.7032  158.0378 C.ar    1  UNL1        0.1411
     34 C         142.9482  143.6253  158.3827 C.ar    1  UNL1        0.0678
     35 C         142.1273  143.3776  159.6134 C.ar    1  UNL1        0.1565
     36 F         140.9956  144.2998  159.9583 F       1  UNL1       -0.2028
     37 O         144.9007  142.9510  156.8070 O.3     1  UNL1       -0.4773
     38 C         145.5105  141.7972  156.0674 C.3     1  UNL1        0.1646
     39 C         145.6151  140.5460  155.2467 C.3     1  UNL1        0.0495
     40 C         144.2674  141.1160  155.5769 C.3     1  UNL1        0.0495
     41 C         146.9654  142.0777  156.3011 C.2     1  UNL1        0.0863
     42 O         147.9980  141.4998  155.3792 O.co2   1  UNL1       -0.5457
     43 O         147.3877  142.9359  157.4566 O.co2   1  UNL1       -0.5457
@<TRIPOS>UNITY_ATOM_ATTR
42 1
charge -1
@<TRIPOS>BOND
     1    26    27    2
     2    27    28   am
     3    28    30    1
     4    30    31   ar
     5    31    32   ar
     6    32    33   ar
     7    33    37    1
     8    37    38    1
     9    38    41    1
    10    41    42   ar
    11    41    43   ar
    12    38    39    1
    13    39    40    1
    14    33    34   ar
    15    34    35   ar
    16    35    36    1
    17    27     1    1
    18     1    20    1
    19    20    21    1
    20    21    22    1
    21    22    23    1
    22    23    24    1
    23    24    25    1
    24     1     2    1
    25     2     3   ar
    26     3    13    1
    27    13    14   ar
    28    14    15   ar
    29    15    16   ar
    30    16    17    1
    31    16    18   ar
    32    18    19   ar
    33     3     4   ar
    34     4     5   ar
    35     5     6   ar
    36     6     7   ar
    37     7     8    1
    38     7     9   ar
    39     9    10    1
    40     9    11   ar
    41    11    12   ar
    42    35    30   ar
    43    25    20    1
    44    12     2   ar
    45    40    38    1
    46    19    13   ar
    47    12     5   ar
    48    28    29    1
@<TRIPOS>MOLECULE
*****
 43 48 0 0 0
SMALL
GASTEIGER

@<TRIPOS>ATOM
      1 C         140.3065  140.0217  159.7376 C.3     1  UNL1        0.1631
      2 N         141.2243  139.0440  159.0654 N.ar    1  UNL1       -0.3047
      3 C         142.6418  138.7514  159.4592 C.ar    1  UNL1        0.1441
      4 N         143.1793  137.7138  158.5187 N.ar    1  UNL1       -0.2267
      5 C         142.0940  137.3653  157.5437 C.ar    1  UNL1        0.1010
      6 C         142.0499  136.4055  156.3918 C.ar    1  UNL1        0.0526
      7 C         140.7974  136.2678  155.5779 C.ar    1  UNL1        0.1690
      8 F         140.7533  135.3079  154.4260 F       1  UNL1       -0.2017
      9 C         139.5892  137.0899  155.9158 C.ar    1  UNL1        0.1689
     10 F         138.3367  136.9522  155.1018 F       1  UNL1       -0.2017
     11 C         139.6333  138.0497  157.0677 C.ar    1  UNL1        0.0507
     12 C         140.8857  138.1874  157.8816 C.ar    1  UNL1        0.0816
     13 C         143.3904  139.3850  160.5942 C.ar    1  UNL1        0.0342
     14 C         143.6670  138.5993  161.8415 C.ar    1  UNL1        0.0039
     15 C         144.4155  139.2330  162.9765 C.ar    1  UNL1        0.0115
     16 C         144.8874  140.6523  162.8641 C.ar    1  UNL1        0.0577
     17 CL        145.6360  141.2859  163.9991 Cl      1  UNL1       -0.0822
     18 C         144.6107  141.4380  161.6167 C.ar    1  UNL1        0.0115
     19 C         143.8622  140.8045  160.4817 C.ar    1  UNL1        0.0039
     20 C         139.7876  141.2070  158.9789 C.3     1  UNL1        0.0297
     21 C         138.3794  141.2089  158.4621 C.3     1  UNL1        0.0024
     22 C         137.8606  142.3943  157.7034 C.3     1  UNL1        0.0001
     23 C         138.7499  143.5777  157.4613 C.3     1  UNL1        0.0000
     24 C         140.1581  143.5758  157.9780 C.3     1  UNL1        0.0001
     25 C         140.6770  142.3905  158.7367 C.3     1  UNL1        0.0024
     26 O         138.7000  138.9875  161.4983 O.2     1  UNL1       -0.2727
     27 C         139.9075  139.8141  161.1687 C.2     1  UNL1        0.2469
     28 N         140.7161  140.4331  162.2701 N.am    1  UNL1       -0.2806
     29 H         141.5087  140.9756  162.0537 H       1  UNL1        0.1550
     30 C         140.3171  140.2254  163.7010 C.ar    1  UNL1        0.0784
     31 C         139.8054  141.3789  164.5118 C.ar    1  UNL1        0.0201
     32 C         139.4063  141.1713  165.9429 C.ar    1  UNL1        0.0383
     33 C         139.5191  139.8102  166.5630 C.ar    1  UNL1        0.1411
     34 C         140.0309  138.6567  165.7521 C.ar    1  UNL1        0.0678
     35 C         140.4299  138.8643  164.3211 C.ar    1  UNL1        0.1565
     36 F         140.9417  137.7107  163.5103 F       1  UNL1       -0.2028
     37 O         139.1201  139.6025  167.9939 O.3     1  UNL1       -0.4773
     38 C         140.0012  140.1056  169.0987 C.3     1  UNL1        0.1646
     39 C         141.2440  140.4347  169.8716 C.3     1  UNL1        0.0495
     40 C         141.3487  139.7791  168.5264 C.3     1  UNL1        0.0495
     41 C         138.9597  140.6069  170.0548 C.2     1  UNL1        0.0863
     42 O         137.7996  139.7316  170.4265 O.co2   1  UNL1       -0.5457
     43 O         139.0783  141.9833  170.6391 O.co2   1  UNL1       -0.5457
@<TRIPOS>UNITY_ATOM_ATTR
42 1
charge -1
@<TRIPOS>BOND
     1    26    27    2
     2    27    28   am
     3    28    30    1
     4    30    31   ar
     5    31    32   ar
     6    32    33   ar
     7    33    37    1
     8    37    38    1
     9    38    41    1
    10    41    42   ar
    11    41    43   ar
    12    38    39    1
    13    39    40    1
    14    33    34   ar
    15    34    35   ar
    16    35    36    1
    17    27     1    1
    18     1    20    1
    19    20    21    1
    20    21    22    1
    21    22    23    1
    22    23    24    1
    23    24    25    1
    24     1     2    1
    25     2     3   ar
    26     3    13    1
    27    13    14   ar
    28    14    15   ar
    29    15    16   ar
    30    16    17    1
    31    16    18   ar
    32    18    19   ar
    33     3     4   ar
    34     4     5   ar
    35     5     6   ar
    36     6     7   ar
    37     7     8    1
    38     7     9   ar
    39     9    10    1
    40     9    11   ar
    41    11    12   ar
    42    35    30   ar
    43    25    20    1
    44    12     2   ar
    45    40    38    1
    46    19    13   ar
    47    12     5   ar
    48    28    29    1
@<TRIPOS>MOLECULE
*****
 43 48 0 0 0
SMALL
GASTEIGER

@<TRIPOS>ATOM
      1 C         140.2824  142.0064  160.2324 C.3     1  UNL1        0.1631
      2 N         140.6071  143.3563  159.6646 N.ar    1  UNL1       -0.3047
      3 C         141.5332  144.3684  160.2711 C.ar    1  UNL1        0.1441
      4 N         141.5612  145.5687  159.3719 N.ar    1  UNL1       -0.2267
      5 C         140.6523  145.2983  158.2096 C.ar    1  UNL1        0.1010
      6 C         140.2855  146.1205  157.0099 C.ar    1  UNL1        0.0526
      7 C         139.3291  145.5754  155.9910 C.ar    1  UNL1        0.1690
      8 F         138.9623  146.3977  154.7912 F       1  UNL1       -0.2017
      9 C         138.7394  144.2081  156.1719 C.ar    1  UNL1        0.1689
     10 F         137.7829  143.6630  155.1530 F       1  UNL1       -0.2017
     11 C         139.1062  143.3859  157.3716 C.ar    1  UNL1        0.0507
     12 C         140.0627  143.9310  158.3905 C.ar    1  UNL1        0.0816
     13 C         142.2972  144.2084  161.5521 C.ar    1  UNL1        0.0342
     14 C         143.5693  143.4138  161.5723 C.ar    1  UNL1        0.0039
     15 C         144.3332  143.2538  162.8532 C.ar    1  UNL1        0.0115
     16 C         143.8251  143.8882  164.1138 C.ar    1  UNL1        0.0577
     17 CL        144.5892  143.7282  165.3947 Cl      1  UNL1       -0.0822
     18 C         142.5530  144.6828  164.0935 C.ar    1  UNL1        0.0115
     19 C         141.7890  144.8429  162.8127 C.ar    1  UNL1        0.0039
     20 C         139.5929  141.8973  161.5600 C.3     1  UNL1        0.0297
     21 C         140.3217  141.3233  162.7388 C.3     1  UNL1        0.0024
     22 C         139.6321  141.2142  164.0664 C.3     1  UNL1        0.0001
     23 C         138.2138  141.6791  164.2154 C.3     1  UNL1        0.0000
     24 C         137.4850  142.2532  163.0367 C.3     1  UNL1        0.0001
     25 C         138.1745  142.3623  161.7090 C.3     1  UNL1        0.0024
     26 O         139.5980  139.7386  159.1653 O.2     1  UNL1       -0.2727
     27 C         140.6472  140.7656  159.4726 C.2     1  UNL1        0.2469
     28 N         142.0613  140.5517  159.0201 N.am    1  UNL1       -0.2806
     29 H         142.7500  141.2258  159.2218 H       1  UNL1        0.1550
     30 C         142.4260  139.3109  158.2603 C.ar    1  UNL1        0.0784
     31 C         142.7670  139.3975  156.8021 C.ar    1  UNL1        0.0201
     32 C         143.1317  138.1566  156.0422 C.ar    1  UNL1        0.0383
     33 C         143.1556  136.8293  156.7405 C.ar    1  UNL1        0.1411
     34 C         142.8146  136.7429  158.1988 C.ar    1  UNL1        0.0678
     35 C         142.4499  137.9836  158.9586 C.ar    1  UNL1        0.1565
     36 F         142.1090  137.8971  160.4168 F       1  UNL1       -0.2028
     37 O         143.5203  135.5885  155.9808 O.3     1  UNL1       -0.4773
     38 C         142.5017  134.5060  155.7792 C.3     1  UNL1        0.1646
     39 C         141.2858  133.7923  155.2672 C.3     1  UNL1        0.0495
     40 C         141.5797  135.1921  154.8153 C.3     1  UNL1        0.0495
     41 C         143.0700  133.4438  156.6730 C.2     1  UNL1        0.0863
     42 O         142.3688  132.1249  156.8101 O.co2   1  UNL1       -0.5457
     43 O         144.3395  133.7005  157.4296 O.co2   1  UNL1       -0.5457
@<TRIPOS>UNITY_ATOM_ATTR
42 1
charge -1
@<TRIPOS>BOND
     1    26    27    2
     2    27    28   am
     3    28    30    1
     4    30    31   ar
     5    31    32   ar
     6    32    33   ar
     7    33    37    1
     8    37    38    1
     9    38    41    1
    10    41    42   ar
    11    41    43   ar
    12    38    39    1
    13    39    40    1
    14    33    34   ar
    15    34    35   ar
    16    35    36    1
    17    27     1    1
    18     1    20    1
    19    20    21    1
    20    21    22    1
    21    22    23    1
    22    23    24    1
    23    24    25    1
    24     1     2    1
    25     2     3   ar
    26     3    13    1
    27    13    14   ar
    28    14    15   ar
    29    15    16   ar
    30    16    17    1
    31    16    18   ar
    32    18    19   ar
    33     3     4   ar
    34     4     5   ar
    35     5     6   ar
    36     6     7   ar
    37     7     8    1
    38     7     9   ar
    39     9    10    1
    40     9    11   ar
    41    11    12   ar
    42    35    30   ar
    43    25    20    1
    44    12     2   ar
    45    40    38    1
    46    19    13   ar
    47    12     5   ar
    48    28    29    1
@<TRIPOS>MOLECULE
*****
 43 48 0 0 0
SMALL
GASTEIGER

@<TRIPOS>ATOM
      1 C         141.2697  141.7427  160.5931 C.3     1  UNL1        0.1631
      2 N         141.2792  143.0887  159.9311 N.ar    1  UNL1       -0.3047
      3 C         140.7467  144.3629  160.5167 C.ar    1  UNL1        0.1441
      4 N         140.9612  145.4585  159.5149 N.ar    1  UNL1       -0.2267
      5 C         141.6262  144.8614  158.3102 C.ar    1  UNL1        0.1010
      6 C         142.0782  145.4622  157.0123 C.ar    1  UNL1        0.0526
      7 C         142.7267  144.5983  155.9715 C.ar    1  UNL1        0.1690
      8 F         143.1787  145.1991  154.6735 F       1  UNL1       -0.2017
      9 C         142.9232  143.1336  156.2287 C.ar    1  UNL1        0.1689
     10 F         143.5717  142.2698  155.1880 F       1  UNL1       -0.2017
     11 C         142.4712  142.5329  157.5267 C.ar    1  UNL1        0.0507
     12 C         141.8227  143.3968  158.5675 C.ar    1  UNL1        0.0816
     13 C         140.1113  144.5148  161.8670 C.ar    1  UNL1        0.0342
     14 C         140.9007  145.0863  163.0073 C.ar    1  UNL1        0.0039
     15 C         140.2653  145.2381  164.3575 C.ar    1  UNL1        0.0115
     16 C         138.8407  144.8185  164.5675 C.ar    1  UNL1        0.0577
     17 CL        138.2054  144.9704  165.9179 Cl      1  UNL1       -0.0822
     18 C         138.0513  144.2470  163.4272 C.ar    1  UNL1        0.0115
     19 C         138.6866  144.0951  162.0770 C.ar    1  UNL1        0.0039
     20 C         141.0364  140.5066  159.7760 C.3     1  UNL1        0.0297
     21 C         142.1184  139.4754  159.6500 C.3     1  UNL1        0.0024
     22 C         141.8850  138.2394  158.8329 C.3     1  UNL1        0.0001
     23 C         140.5696  138.0344  158.1418 C.3     1  UNL1        0.0000
     24 C         139.4875  139.0656  158.2677 C.3     1  UNL1        0.0001
     25 C         139.7209  140.3017  159.0848 C.3     1  UNL1        0.0024
     26 O         142.7334  142.2103  162.6881 O.2     1  UNL1       -0.2727
     27 C         141.4936  141.6327  162.0723 C.2     1  UNL1        0.2469
     28 N         140.4778  140.9451  162.9355 N.am    1  UNL1       -0.2806
     29 H         139.6640  140.5659  162.5313 H       1  UNL1        0.1550
     30 C         140.7017  140.8351  164.4146 C.ar    1  UNL1        0.0784
     31 C         139.8829  141.6626  165.3606 C.ar    1  UNL1        0.0201
     32 C         140.1068  141.5527  166.8398 C.ar    1  UNL1        0.0383
     33 C         141.1495  140.6154  167.3729 C.ar    1  UNL1        0.1411
     34 C         141.9683  139.7880  166.4268 C.ar    1  UNL1        0.0678
     35 C         141.7444  139.8978  164.9477 C.ar    1  UNL1        0.1565
     36 F         142.5632  139.0704  164.0017 F       1  UNL1       -0.2028
     37 O         141.3735  140.5055  168.8520 O.3     1  UNL1       -0.4773
     38 C         141.6481  141.7374  169.6625 C.3     1  UNL1        0.1646
     39 C         142.3180  142.9937  170.1347 C.3     1  UNL1        0.0495
     40 C         142.8819  142.2353  168.9698 C.3     1  UNL1        0.0495
     41 C         140.5096  141.6675  170.6366 C.2     1  UNL1        0.0863
     42 O         140.7106  142.1038  172.0576 O.co2   1  UNL1       -0.5457
     43 O         139.1702  141.1613  170.1898 O.co2   1  UNL1       -0.5457
@<TRIPOS>UNITY_ATOM_ATTR
42 1
charge -1
@<TRIPOS>BOND
     1    26    27    2
     2    27    28   am
     3    28    30    1
     4    30    31   ar
     5    31    32   ar
     6    32    33   ar
     7    33    37    1
     8    37    38    1
     9    38    41    1
    10    41    42   ar
    11    41    43   ar
    12    38    39    1
    13    39    40    1
    14    33    34   ar
    15    34    35   ar
    16    35    36    1
    17    27     1    1
    18     1    20    1
    19    20    21    1
    20    21    22    1
    21    22    23    1
    22    23    24    1
    23    24    25    1
    24     1     2    1
    25     2     3   ar
    26     3    13    1
    27    13    14   ar
    28    14    15   ar
    29    15    16   ar
    30    16    17    1
    31    16    18   ar
    32    18    19   ar
    33     3     4   ar
    34     4     5   ar
    35     5     6   ar
    36     6     7   ar
    37     7     8    1
    38     7     9   ar
    39     9    10    1
    40     9    11   ar
    41    11    12   ar
    42    35    30   ar
    43    25    20    1
    44    12     2   ar
    45    40    38    1
    46    19    13   ar
    47    12     5   ar
    48    28    29    1
@<TRIPOS>MOLECULE
*****
 43 48 0 0 0
SMALL
GASTEIGER

@<TRIPOS>ATOM
      1 C         140.5825  140.6573  159.6002 C.3     1  UNL1        0.1631
      2 N         141.4321  139.5295  159.0940 N.ar    1  UNL1       -0.3047
      3 C         142.7997  139.1643  159.5905 C.ar    1  UNL1        0.1441
      4 N         143.2761  137.9780  158.8059 N.ar    1  UNL1       -0.2267
      5 C         142.2030  137.6100  157.8246 C.ar    1  UNL1        0.1010
      6 C         142.1164  136.5256  156.7918 C.ar    1  UNL1        0.0526
      7 C         140.8901  136.4001  155.9371 C.ar    1  UNL1        0.1690
      8 F         140.8036  135.3156  154.9043 F       1  UNL1       -0.2017
      9 C         139.7505  137.3589  156.1152 C.ar    1  UNL1        0.1689
     10 F         138.5242  137.2334  155.2605 F       1  UNL1       -0.2017
     11 C         139.8371  138.4433  157.1479 C.ar    1  UNL1        0.0507
     12 C         141.0634  138.5688  158.0026 C.ar    1  UNL1        0.0816
     13 C         143.5576  139.8629  160.6802 C.ar    1  UNL1        0.0342
     14 C         143.8094  139.1658  161.9843 C.ar    1  UNL1        0.0039
     15 C         144.5673  139.8644  163.0740 C.ar    1  UNL1        0.0115
     16 C         145.0735  141.2599  162.8597 C.ar    1  UNL1        0.0577
     17 CL        145.8315  141.9585  163.9495 Cl      1  UNL1       -0.0822
     18 C         144.8218  141.9570  161.5556 C.ar    1  UNL1        0.0115
     19 C         144.0638  141.2586  160.4659 C.ar    1  UNL1        0.0039
     20 C         139.8840  141.5638  158.6305 C.3     1  UNL1        0.0297
     21 C         138.3852  141.5958  158.5798 C.3     1  UNL1        0.0024
     22 C         137.6868  142.5024  157.6101 C.3     1  UNL1        0.0001
     23 C         138.4870  143.3769  156.6911 C.3     1  UNL1        0.0000
     24 C         139.9859  143.3450  156.7417 C.3     1  UNL1        0.0001
     25 C         140.6843  142.4384  157.7114 C.3     1  UNL1        0.0024
     26 O         139.8673  139.7925  161.9434 O.2     1  UNL1       -0.2727
     27 C         140.4313  140.8786  161.0761 C.2     1  UNL1        0.2469
     28 N         140.8442  142.1860  161.6846 N.am    1  UNL1       -0.2806
     29 H         141.2143  142.8989  161.1153 H       1  UNL1        0.1550
     30 C         140.6930  142.4073  163.1604 C.ar    1  UNL1        0.0784
     31 C         141.8872  142.2973  164.0614 C.ar    1  UNL1        0.0201
     32 C         141.7361  142.5185  165.5374 C.ar    1  UNL1        0.0383
     33 C         140.3908  142.8497  166.1123 C.ar    1  UNL1        0.1411
     34 C         139.1966  142.9597  165.2112 C.ar    1  UNL1        0.0678
     35 C         139.3477  142.7384  163.7353 C.ar    1  UNL1        0.1565
     36 F         138.1535  142.8484  162.8343 F       1  UNL1       -0.2028
     37 O         140.2396  143.0709  167.5881 O.3     1  UNL1       -0.4773
     38 C         140.7720  142.0569  168.5568 C.3     1  UNL1        0.1646
     39 C         140.9536  140.7518  169.2735 C.3     1  UNL1        0.0495
     40 C         139.9469  140.8663  168.1673 C.3     1  UNL1        0.0495
     41 C         141.7819  142.8954  169.2828 C.2     1  UNL1        0.0863
     42 O         141.3270  143.9423  170.2560 O.co2   1  UNL1       -0.5457
     43 O         143.2466  142.6869  169.0357 O.co2   1  UNL1       -0.5457
@<TRIPOS>UNITY_ATOM_ATTR
42 1
charge -1
@<TRIPOS>BOND
     1    26    27    2
     2    27    28   am
     3    28    30    1
     4    30    31   ar
     5    31    32   ar
     6    32    33   ar
     7    33    37    1
     8    37    38    1
     9    38    41    1
    10    41    42   ar
    11    41    43   ar
    12    38    39    1
    13    39    40    1
    14    33    34   ar
    15    34    35   ar
    16    35    36    1
    17    27     1    1
    18     1    20    1
    19    20    21    1
    20    21    22    1
    21    22    23    1
    22    23    24    1
    23    24    25    1
    24     1     2    1
    25     2     3   ar
    26     3    13    1
    27    13    14   ar
    28    14    15   ar
    29    15    16   ar
    30    16    17    1
    31    16    18   ar
    32    18    19   ar
    33     3     4   ar
    34     4     5   ar
    35     5     6   ar
    36     6     7   ar
    37     7     8    1
    38     7     9   ar
    39     9    10    1
    40     9    11   ar
    41    11    12   ar
    42    35    30   ar
    43    25    20    1
    44    12     2   ar
    45    40    38    1
    46    19    13   ar
    47    12     5   ar
    48    28    29    1
@<TRIPOS>MOLECULE
*****
 43 48 0 0 0
SMALL
GASTEIGER

@<TRIPOS>ATOM
      1 C         140.6754  141.0901  164.8968 C.3     1  UNL1        0.1631
      2 N         141.6930  141.6104  165.8683 N.ar    1  UNL1       -0.3047
      3 C         143.0470  142.1540  165.5202 C.ar    1  UNL1        0.1441
      4 N         143.7261  142.5580  166.7952 N.ar    1  UNL1       -0.2267
      5 C         142.7918  142.2640  167.9313 C.ar    1  UNL1        0.1010
      6 C         142.9228  142.4539  169.4134 C.ar    1  UNL1        0.0526
      7 C         141.7974  142.0582  170.3227 C.ar    1  UNL1        0.1690
      8 F         141.9285  142.2482  171.8049 F       1  UNL1       -0.2017
      9 C         140.5409  141.4726  169.7498 C.ar    1  UNL1        0.1689
     10 F         139.4154  141.0768  170.6591 F       1  UNL1       -0.2017
     11 C         140.4098  141.2826  168.2677 C.ar    1  UNL1        0.0507
     12 C         141.5353  141.6783  167.3584 C.ar    1  UNL1        0.0816
     13 C         143.6211  142.2728  164.1395 C.ar    1  UNL1        0.0342
     14 C         144.0632  141.0433  163.4028 C.ar    1  UNL1        0.0039
     15 C         144.6373  141.1621  162.0221 C.ar    1  UNL1        0.0115
     16 C         144.7692  142.5103  161.3782 C.ar    1  UNL1        0.0577
     17 CL        145.3433  142.6290  159.9974 Cl      1  UNL1       -0.0822
     18 C         144.3271  143.7398  162.1149 C.ar    1  UNL1        0.0115
     19 C         143.7530  143.6211  163.4955 C.ar    1  UNL1        0.0039
     20 C         139.9128  139.8368  165.2088 C.3     1  UNL1        0.0297
     21 C         140.4291  138.5084  164.7409 C.3     1  UNL1        0.0024
     22 C         139.6664  137.2551  165.0529 C.3     1  UNL1        0.0001
     23 C         138.3873  137.3300  165.8328 C.3     1  UNL1        0.0000
     24 C         137.8709  138.6583  166.3007 C.3     1  UNL1        0.0001
     25 C         138.6336  139.9117  165.9887 C.3     1  UNL1        0.0024
     26 O         140.0180  143.2679  163.6418 O.2     1  UNL1       -0.2727
     27 C         140.4205  141.8232  163.6132 C.2     1  UNL1        0.2469
     28 N         140.5681  141.1116  162.3010 N.am    1  UNL1       -0.2806
     29 H         140.8323  140.1634  162.2821 H       1  UNL1        0.1550
     30 C         140.3131  141.8448  161.0175 C.ar    1  UNL1        0.0784
     31 C         141.4611  142.4172  160.2400 C.ar    1  UNL1        0.0201
     32 C         141.2063  143.1504  158.9564 C.ar    1  UNL1        0.0383
     33 C         139.8034  143.3112  158.4503 C.ar    1  UNL1        0.1411
     34 C         138.6554  142.7388  159.2279 C.ar    1  UNL1        0.0678
     35 C         138.9103  142.0056  160.5114 C.ar    1  UNL1        0.1565
     36 F         137.7623  141.4332  161.2889 F       1  UNL1       -0.2028
     37 O         139.5485  144.0444  157.1668 O.3     1  UNL1       -0.4773
     38 C         140.6988  144.5897  156.3734 C.3     1  UNL1        0.1646
     39 C         141.7788  144.6800  155.3365 C.3     1  UNL1        0.0495
     40 C         140.8960  143.4688  155.3965 C.3     1  UNL1        0.0495
     41 C         140.9010  145.9001  157.0749 C.2     1  UNL1        0.0863
     42 O         139.7670  146.8760  157.1826 O.co2   1  UNL1       -0.5457
     43 O         142.2373  146.2346  157.6686 O.co2   1  UNL1       -0.5457
@<TRIPOS>UNITY_ATOM_ATTR
42 1
charge -1
@<TRIPOS>BOND
     1    26    27    2
     2    27    28   am
     3    28    30    1
     4    30    31   ar
     5    31    32   ar
     6    32    33   ar
     7    33    37    1
     8    37    38    1
     9    38    41    1
    10    41    42   ar
    11    41    43   ar
    12    38    39    1
    13    39    40    1
    14    33    34   ar
    15    34    35   ar
    16    35    36    1
    17    27     1    1
    18     1    20    1
    19    20    21    1
    20    21    22    1
    21    22    23    1
    22    23    24    1
    23    24    25    1
    24     1     2    1
    25     2     3   ar
    26     3    13    1
    27    13    14   ar
    28    14    15   ar
    29    15    16   ar
    30    16    17    1
    31    16    18   ar
    32    18    19   ar
    33     3     4   ar
    34     4     5   ar
    35     5     6   ar
    36     6     7   ar
    37     7     8    1
    38     7     9   ar
    39     9    10    1
    40     9    11   ar
    41    11    12   ar
    42    35    30   ar
    43    25    20    1
    44    12     2   ar
    45    40    38    1
    46    19    13   ar
    47    12     5   ar
    48    28    29    1
@<TRIPOS>MOLECULE
*****
 43 48 0 0 0
SMALL
GASTEIGER

@<TRIPOS>ATOM
      1 C         141.0204  141.4527  160.4782 C.3     1  UNL1        0.1631
      2 N         139.6820  141.6907  159.8443 N.ar    1  UNL1       -0.3047
      3 C         138.5468  142.4653  160.4456 C.ar    1  UNL1        0.1441
      4 N         137.4069  142.4492  159.4707 N.ar    1  UNL1       -0.2267
      5 C         137.8376  141.6647  158.2669 C.ar    1  UNL1        0.1010
      6 C         137.1311  141.3167  156.9903 C.ar    1  UNL1        0.0526
      7 C         137.8307  140.4999  155.9446 C.ar    1  UNL1        0.1690
      8 F         137.1241  140.1518  154.6679 F       1  UNL1       -0.2017
      9 C         139.2367  140.0311  156.1754 C.ar    1  UNL1        0.1689
     10 F         139.9362  139.2143  155.1297 F       1  UNL1       -0.2017
     11 C         139.9432  140.3791  157.4520 C.ar    1  UNL1        0.0507
     12 C         139.2437  141.1959  158.4977 C.ar    1  UNL1        0.0816
     13 C         138.5509  143.1378  161.7863 C.ar    1  UNL1        0.0342
     14 C         137.7207  142.5834  162.9059 C.ar    1  UNL1        0.0039
     15 C         137.7248  143.2560  164.2467 C.ar    1  UNL1        0.0115
     16 C         138.5590  144.4827  164.4679 C.ar    1  UNL1        0.0577
     17 CL        138.5630  145.1552  165.8087 Cl      1  UNL1       -0.0822
     18 C         139.3891  145.0371  163.3483 C.ar    1  UNL1        0.0115
     19 C         139.3851  144.3646  162.0075 C.ar    1  UNL1        0.0039
     20 C         142.2734  141.6239  159.6717 C.3     1  UNL1        0.0297
     21 C         143.1275  140.4333  159.3509 C.3     1  UNL1        0.0024
     22 C         144.3806  140.6046  158.5444 C.3     1  UNL1        0.0001
     23 C         144.7796  141.9664  158.0586 C.3     1  UNL1        0.0000
     24 C         143.9255  143.1572  158.3793 C.3     1  UNL1        0.0001
     25 C         142.6725  142.9859  159.1858 C.3     1  UNL1        0.0024
     26 O         140.4310  139.7868  162.3828 O.2     1  UNL1       -0.2727
     27 C         141.1059  141.0435  161.9189 C.2     1  UNL1        0.2469
     28 N         141.8662  141.8910  162.8954 N.am    1  UNL1       -0.2806
     29 H         142.3091  142.7158  162.5909 H       1  UNL1        0.1550
     30 C         141.9516  141.4817  164.3360 C.ar    1  UNL1        0.0784
     31 C         141.0101  142.0757  165.3414 C.ar    1  UNL1        0.0201
     32 C         141.0954  141.6664  166.7820 C.ar    1  UNL1        0.0383
     33 C         142.1222  140.6633  167.2172 C.ar    1  UNL1        0.1411
     34 C         143.0637  140.0694  166.2117 C.ar    1  UNL1        0.0678
     35 C         142.9784  140.4786  164.7711 C.ar    1  UNL1        0.1565
     36 F         143.9199  139.8846  163.7657 F       1  UNL1       -0.2028
     37 O         142.2076  140.2540  168.6577 O.3     1  UNL1       -0.4773
     38 C         142.1624  141.2948  169.7369 C.3     1  UNL1        0.1646
     39 C         142.5314  142.5017  170.5477 C.3     1  UNL1        0.0495
     40 C         143.3395  142.1346  169.3384 C.3     1  UNL1        0.0495
     41 C         140.9695  140.8164  170.5103 C.2     1  UNL1        0.0863
     42 O         140.6230  141.4525  171.8239 O.co2   1  UNL1       -0.5457
     43 O         140.1231  139.7020  169.9702 O.co2   1  UNL1       -0.5457
@<TRIPOS>UNITY_ATOM_ATTR
42 1
charge -1
@<TRIPOS>BOND
     1    26    27    2
     2    27    28   am
     3    28    30    1
     4    30    31   ar
     5    31    32   ar
     6    32    33   ar
     7    33    37    1
     8    37    38    1
     9    38    41    1
    10    41    42   ar
    11    41    43   ar
    12    38    39    1
    13    39    40    1
    14    33    34   ar
    15    34    35   ar
    16    35    36    1
    17    27     1    1
    18     1    20    1
    19    20    21    1
    20    21    22    1
    21    22    23    1
    22    23    24    1
    23    24    25    1
    24     1     2    1
    25     2     3   ar
    26     3    13    1
    27    13    14   ar
    28    14    15   ar
    29    15    16   ar
    30    16    17    1
    31    16    18   ar
    32    18    19   ar
    33     3     4   ar
    34     4     5   ar
    35     5     6   ar
    36     6     7   ar
    37     7     8    1
    38     7     9   ar
    39     9    10    1
    40     9    11   ar
    41    11    12   ar
    42    35    30   ar
    43    25    20    1
    44    12     2   ar
    45    40    38    1
    46    19    13   ar
    47    12     5   ar
    48    28    29    1
@<TRIPOS>MOLECULE
*****
 43 48 0 0 0
SMALL
GASTEIGER

@<TRIPOS>ATOM
      1 C         141.4417  141.0452  162.0798 C.3     1  UNL1        0.1631
      2 N         140.6488  139.8570  162.5376 N.ar    1  UNL1       -0.3047
      3 C         140.3368  138.6377  161.7215 C.ar    1  UNL1        0.1441
      4 N         139.5239  137.7067  162.5714 N.ar    1  UNL1       -0.2267
      5 C         139.3334  138.3506  163.9127 C.ar    1  UNL1        0.1010
      6 C         138.6168  137.8985  165.1505 C.ar    1  UNL1        0.0526
      7 C         138.5953  138.7754  166.3673 C.ar    1  UNL1        0.1690
      8 F         137.8786  138.3232  167.6051 F       1  UNL1       -0.2017
      9 C         139.2905  140.1044  166.3464 C.ar    1  UNL1        0.1689
     10 F         139.2691  140.9813  167.5632 F       1  UNL1       -0.2017
     11 C         140.0072  140.5565  165.1087 C.ar    1  UNL1        0.0507
     12 C         140.0287  139.6796  163.8918 C.ar    1  UNL1        0.0816
     13 C         140.7630  138.3925  160.3044 C.ar    1  UNL1        0.0342
     14 C         142.1867  138.0305  160.0014 C.ar    1  UNL1        0.0039
     15 C         142.6129  137.7853  158.5843 C.ar    1  UNL1        0.0115
     16 C         141.6154  137.9021  157.4703 C.ar    1  UNL1        0.0577
     17 CL        142.0416  137.6568  156.0531 Cl      1  UNL1       -0.0822
     18 C         140.1916  138.2640  157.7733 C.ar    1  UNL1        0.0115
     19 C         139.7654  138.5093  159.1903 C.ar    1  UNL1        0.0039
     20 C         142.8282  141.2696  162.6060 C.3     1  UNL1        0.0297
     21 C         143.6066  140.1238  163.1815 C.3     1  UNL1        0.0024
     22 C         144.9932  140.3483  163.7077 C.3     1  UNL1        0.0001
     23 C         145.6015  141.7185  163.6585 C.3     1  UNL1        0.0000
     24 C         144.8231  142.8644  163.0830 C.3     1  UNL1        0.0001
     25 C         143.4365  142.6399  162.5568 C.3     1  UNL1        0.0024
     26 O         139.9013  143.0734  161.5658 O.2     1  UNL1       -0.2727
     27 C         140.8479  142.0090  161.0956 C.2     1  UNL1        0.2469
     28 N         141.2008  141.9085  159.6411 N.am    1  UNL1       -0.2806
     29 H         141.8221  141.2100  159.3324 H       1  UNL1        0.1550
     30 C         140.6070  142.8723  158.6570 C.ar    1  UNL1        0.0784
     31 C         139.6033  142.3934  157.6505 C.ar    1  UNL1        0.0201
     32 C         139.0094  143.3572  156.6663 C.ar    1  UNL1        0.0383
     33 C         139.4193  144.7999  156.6887 C.ar    1  UNL1        0.1411
     34 C         140.4231  145.2788  157.6953 C.ar    1  UNL1        0.0678
     35 C         141.0169  144.3151  158.6795 C.ar    1  UNL1        0.1565
     36 F         142.0207  144.7940  159.6860 F       1  UNL1       -0.2028
     37 O         138.8256  145.7638  155.7047 O.3     1  UNL1       -0.4773
     38 C         139.7202  146.5591  154.8007 C.3     1  UNL1        0.1646
     39 C         140.7375  146.8719  153.7437 C.3     1  UNL1        0.0495
     40 C         140.3840  145.4458  154.0458 C.3     1  UNL1        0.0495
     41 C         139.3673  147.9487  155.2417 C.2     1  UNL1        0.0863
     42 O         138.7436  148.1727  156.5874 O.co2   1  UNL1       -0.5457
     43 O         139.6379  149.1142  154.3371 O.co2   1  UNL1       -0.5457
@<TRIPOS>UNITY_ATOM_ATTR
42 1
charge -1
@<TRIPOS>BOND
     1    26    27    2
     2    27    28   am
     3    28    30    1
     4    30    31   ar
     5    31    32   ar
     6    32    33   ar
     7    33    37    1
     8    37    38    1
     9    38    41    1
    10    41    42   ar
    11    41    43   ar
    12    38    39    1
    13    39    40    1
    14    33    34   ar
    15    34    35   ar
    16    35    36    1
    17    27     1    1
    18     1    20    1
    19    20    21    1
    20    21    22    1
    21    22    23    1
    22    23    24    1
    23    24    25    1
    24     1     2    1
    25     2     3   ar
    26     3    13    1
    27    13    14   ar
    28    14    15   ar
    29    15    16   ar
    30    16    17    1
    31    16    18   ar
    32    18    19   ar
    33     3     4   ar
    34     4     5   ar
    35     5     6   ar
    36     6     7   ar
    37     7     8    1
    38     7     9   ar
    39     9    10    1
    40     9    11   ar
    41    11    12   ar
    42    35    30   ar
    43    25    20    1
    44    12     2   ar
    45    40    38    1
    46    19    13   ar
    47    12     5   ar
    48    28    29    1
