@<TRIPOS>MOLECULE
*****
 31 35 0 0 0
SMALL
GASTEIGER

@<TRIPOS>ATOM
      1 C         138.7940  142.2743  161.7546 C.2     1  UNL1        0.0866
      2 N         137.7866  141.2767  161.2649 N.2     1  UNL1       -0.1523
      3 N         137.4870  140.3303  162.3895 N.2     1  UNL1       -0.1523
      4 C         138.3094  140.7430  163.5742 C.2     1  UNL1        0.0858
      5 C         139.1172  141.9445  163.1817 C.3     1  UNL1        0.0883
      6 C         139.9395  142.3572  164.3664 C.3     1  UNL1        0.0384
      7 C         139.6400  141.4108  165.4910 C.ar    1  UNL1       -0.0205
      8 C         140.1545  141.3286  166.8975 C.ar    1  UNL1       -0.0065
      9 C         139.6615  140.2488  167.8145 C.ar    1  UNL1        0.0019
     10 C         138.6540  139.2511  167.3249 C.ar    1  UNL1       -0.0023
     11 C         138.1395  139.3334  165.9183 C.ar    1  UNL1        0.0007
     12 C         138.6325  140.4132  165.0014 C.ar    1  UNL1        0.0117
     13 C         140.0870  144.7880  159.0947 C.ar    1  UNL1        0.0710
     14 C         139.4190  143.4958  159.4605 C.ar    1  UNL1        0.0165
     15 C         139.3762  143.4035  160.9571 C.ar    1  UNL1        0.0233
     16 C         140.0178  144.6388  161.5162 C.ar    1  UNL1        0.0373
     17 S         140.4571  145.4945  160.3651 S.2     1  UNL1       -0.0780
     18 C         140.5939  145.7846  156.3109 C.1     1  UNL1       -0.0534
     19 C         140.3404  145.2864  157.7028 C.1     1  UNL1       -0.0554
     20 C         140.8474  146.2829  154.9189 C.3     1  UNL1        0.2182
     21 O         140.2944  147.6077  154.4841 O.3     1  UNL1       -0.3374
     22 C         139.1096  148.1948  155.1924 C.3     1  UNL1        0.1755
     23 C         138.9337  149.6832  155.2528 C.3     1  UNL1        0.1743
     24 C         138.1352  149.4895  157.7176 C.3     1  UNL1        0.1742
     25 O         138.4645  150.3322  156.5211 O.3     1  UNL1       -0.3484
     26 C         140.1760  140.1665  169.2212 C.3     1  UNL1        0.1556
     27 N         141.2670  141.0901  169.6759 N.ar    1  UNL1       -0.2255
     28 C         141.0871  142.3244  170.5090 C.ar    1  UNL1        0.1975
     29 N         142.4384  142.9386  170.7253 N.ar    1  UNL1       -0.2007
     30 C         143.4534  142.0839  170.0260 C.ar    1  UNL1        0.2210
     31 N         142.7295  140.9414  169.3774 N.ar    1  UNL1       -0.1448
@<TRIPOS>BOND
     1    24    25    1
     2    25    23    1
     3    23    22    1
     4    22    21    1
     5    21    20    1
     6    20    18    1
     7    18    19    3
     8    19    13    1
     9    13    14   ar
    10    14    15   ar
    11    15     1    1
    12     1     2    2
    13     2     3    1
    14     3     4    2
    15     4     5    1
    16     5     6    1
    17     6     7    1
    18     7     8   ar
    19     8     9   ar
    20     9    26    1
    21    26    27    1
    22    27    28   ar
    23    28    29   ar
    24    29    30   ar
    25    30    31   ar
    26     9    10   ar
    27    10    11   ar
    28    11    12   ar
    29    15    16   ar
    30    16    17   ar
    31    17    13   ar
    32     5     1    1
    33    12     7   ar
    34    12     4    1
    35    31    27   ar
@<TRIPOS>MOLECULE
*****
 31 35 0 0 0
SMALL
GASTEIGER

@<TRIPOS>ATOM
      1 C         138.9927  139.1095  162.1411 C.2     1  UNL1        0.0866
      2 N         138.6571  137.7130  162.5738 N.2     1  UNL1       -0.1523
      3 N         138.7497  137.6564  164.0699 N.2     1  UNL1       -0.1523
      4 C         139.1425  139.0180  164.5618 C.2     1  UNL1        0.0858
      5 C         139.2927  139.9160  163.3697 C.3     1  UNL1        0.0883
      6 C         139.6855  141.2775  163.8616 C.3     1  UNL1        0.0384
      7 C         139.7781  141.2210  165.3577 C.ar    1  UNL1       -0.0205
      8 C         140.1246  142.2607  166.3819 C.ar    1  UNL1       -0.0065
      9 C         140.1356  141.9039  167.8387 C.ar    1  UNL1        0.0019
     10 C         139.8000  140.5074  168.2715 C.ar    1  UNL1       -0.0023
     11 C         139.4534  139.4677  167.2473 C.ar    1  UNL1        0.0007
     12 C         139.4425  139.8245  165.7904 C.ar    1  UNL1        0.0117
     13 C         138.3228  140.4518  158.5613 C.ar    1  UNL1        0.0710
     14 C         137.8324  140.0166  159.9104 C.ar    1  UNL1        0.0165
     15 C         139.0230  139.6114  160.7278 C.ar    1  UNL1        0.0233
     16 C         140.2493  139.7961  159.8840 C.ar    1  UNL1        0.0373
     17 S         139.8165  140.3156  158.5449 S.2     1  UNL1       -0.0780
     18 C         136.6159  141.4240  156.2939 C.1     1  UNL1       -0.0534
     19 C         137.4693  140.9379  157.4276 C.1     1  UNL1       -0.0554
     20 C         135.7623  141.9100  155.1602 C.3     1  UNL1        0.2182
     21 O         134.3683  141.3827  154.9913 O.3     1  UNL1       -0.3374
     22 C         133.7480  140.5438  156.0690 C.3     1  UNL1        0.1755
     23 C         132.2683  140.6031  156.3074 C.3     1  UNL1        0.1743
     24 C         130.6918  138.9371  157.5277 C.3     1  UNL1        0.1742
     25 O         131.6907  140.0549  157.5785 O.3     1  UNL1       -0.3484
     26 C         140.4821  142.9436  168.8630 C.3     1  UNL1        0.1556
     27 N         141.8669  142.9989  169.4367 N.ar    1  UNL1       -0.2255
     28 C         143.0922  142.3673  168.8452 C.ar    1  UNL1        0.1975
     29 N         144.2522  142.6736  169.7456 N.ar    1  UNL1       -0.2007
     30 C         143.7439  143.4944  170.8935 C.ar    1  UNL1        0.2210
     31 N         142.2697  143.6954  170.7026 N.ar    1  UNL1       -0.1448
@<TRIPOS>BOND
     1    24    25    1
     2    25    23    1
     3    23    22    1
     4    22    21    1
     5    21    20    1
     6    20    18    1
     7    18    19    3
     8    19    13    1
     9    13    14   ar
    10    14    15   ar
    11    15     1    1
    12     1     2    2
    13     2     3    1
    14     3     4    2
    15     4     5    1
    16     5     6    1
    17     6     7    1
    18     7     8   ar
    19     8     9   ar
    20     9    26    1
    21    26    27    1
    22    27    28   ar
    23    28    29   ar
    24    29    30   ar
    25    30    31   ar
    26     9    10   ar
    27    10    11   ar
    28    11    12   ar
    29    15    16   ar
    30    16    17   ar
    31    17    13   ar
    32     5     1    1
    33    12     7   ar
    34    12     4    1
    35    31    27   ar
@<TRIPOS>MOLECULE
*****
 31 35 0 0 0
SMALL
GASTEIGER

@<TRIPOS>ATOM
      1 C         140.5679  138.4711  162.1618 C.2     1  UNL1        0.0866
      2 N         139.3468  137.6771  161.8034 N.2     1  UNL1       -0.1523
      3 N         138.4627  137.6148  163.0136 N.2     1  UNL1       -0.1523
      4 C         139.1375  138.3703  164.1200 C.2     1  UNL1        0.0858
      5 C         140.4386  138.8995  163.5934 C.3     1  UNL1        0.0883
      6 C         141.1133  139.6550  164.6997 C.3     1  UNL1        0.0384
      7 C         140.2293  139.5928  165.9100 C.ar    1  UNL1       -0.0205
      8 C         140.3785  140.1565  167.2920 C.ar    1  UNL1       -0.0065
      9 C         139.3066  139.9262  168.3156 C.ar    1  UNL1        0.0019
     10 C         138.0855  139.1322  167.9573 C.ar    1  UNL1       -0.0023
     11 C         137.9363  138.5685  166.5753 C.ar    1  UNL1        0.0007
     12 C         139.0082  138.7988  165.5517 C.ar    1  UNL1        0.0117
     13 C         143.0090  139.3254  159.2675 C.ar    1  UNL1        0.0710
     14 C         141.6225  139.0698  159.7796 C.ar    1  UNL1        0.0165
     15 C         141.7167  138.7820  161.2487 C.ar    1  UNL1        0.0233
     16 C         143.1615  138.8598  161.6447 C.ar    1  UNL1        0.0373
     17 S         143.9602  139.1957  160.4201 S.2     1  UNL1       -0.0780
     18 C         143.7496  139.9811  156.4354 C.1     1  UNL1       -0.0534
     19 C         143.3793  139.6533  157.8514 C.1     1  UNL1       -0.0554
     20 C         144.1200  140.3090  155.0193 C.3     1  UNL1        0.2182
     21 O         144.7683  141.6231  154.6986 O.3     1  UNL1       -0.3374
     22 C         145.3937  142.4375  155.7920 C.3     1  UNL1        0.1755
     23 C         146.7453  142.0650  156.3253 C.3     1  UNL1        0.1743
     24 C         149.1824  141.7655  155.4765 C.3     1  UNL1        0.1742
     25 O         147.7360  141.3702  155.4390 O.3     1  UNL1       -0.3484
     26 C         139.4558  140.4900  169.6977 C.3     1  UNL1        0.1556
     27 N         140.4374  141.5946  169.9552 N.ar    1  UNL1       -0.2255
     28 C         140.1297  143.0626  169.9671 C.ar    1  UNL1        0.1975
     29 N         141.4012  143.8004  170.2653 N.ar    1  UNL1       -0.2007
     30 C         142.4948  142.7883  170.4376 C.ar    1  UNL1        0.2210
     31 N         141.8992  141.4250  170.2459 N.ar    1  UNL1       -0.1448
@<TRIPOS>BOND
     1    24    25    1
     2    25    23    1
     3    23    22    1
     4    22    21    1
     5    21    20    1
     6    20    18    1
     7    18    19    3
     8    19    13    1
     9    13    14   ar
    10    14    15   ar
    11    15     1    1
    12     1     2    2
    13     2     3    1
    14     3     4    2
    15     4     5    1
    16     5     6    1
    17     6     7    1
    18     7     8   ar
    19     8     9   ar
    20     9    26    1
    21    26    27    1
    22    27    28   ar
    23    28    29   ar
    24    29    30   ar
    25    30    31   ar
    26     9    10   ar
    27    10    11   ar
    28    11    12   ar
    29    15    16   ar
    30    16    17   ar
    31    17    13   ar
    32     5     1    1
    33    12     7   ar
    34    12     4    1
    35    31    27   ar
@<TRIPOS>MOLECULE
*****
 31 35 0 0 0
SMALL
GASTEIGER

@<TRIPOS>ATOM
      1 C         140.6936  145.1115  160.1454 C.2     1  UNL1        0.0866
      2 N         139.7137  146.2414  160.2601 N.2     1  UNL1       -0.1523
      3 N         139.1775  146.2496  161.6610 N.2     1  UNL1       -0.1523
      4 C         139.8262  145.1247  162.4121 C.2     1  UNL1        0.0858
      5 C         140.7632  144.4214  161.4754 C.3     1  UNL1        0.0883
      6 C         141.4118  143.2967  162.2265 C.3     1  UNL1        0.0384
      7 C         140.8757  143.3048  163.6274 C.ar    1  UNL1       -0.0205
      8 C         141.1533  142.4294  164.8134 C.ar    1  UNL1       -0.0065
      9 C         140.4509  142.6838  166.1141 C.ar    1  UNL1        0.0019
     10 C         139.4710  143.8137  166.2288 C.ar    1  UNL1       -0.0023
     11 C         139.1934  144.6891  165.0428 C.ar    1  UNL1        0.0007
     12 C         139.8958  144.4346  163.7421 C.ar    1  UNL1        0.0117
     13 C         142.9165  143.5492  157.3735 C.ar    1  UNL1        0.0710
     14 C         142.3386  143.5263  158.7575 C.ar    1  UNL1        0.0165
     15 C         141.4681  144.7375  158.9164 C.ar    1  UNL1        0.0233
     16 C         141.5079  145.5090  157.6306 C.ar    1  UNL1        0.0373
     17 S         142.4031  144.7745  156.6770 S.2     1  UNL1       -0.0780
     18 C         144.7731  141.5036  156.2038 C.1     1  UNL1       -0.0534
     19 C         143.8448  142.5264  156.7886 C.1     1  UNL1       -0.0554
     20 C         145.7014  140.4807  155.6190 C.3     1  UNL1        0.2182
     21 O         145.4229  139.0192  155.8094 O.3     1  UNL1       -0.3374
     22 C         144.0878  138.4538  155.4248 C.3     1  UNL1        0.1755
     23 C         143.0793  138.1242  156.4852 C.3     1  UNL1        0.1743
     24 C         142.5077  139.5254  158.5971 C.3     1  UNL1        0.1742
     25 O         143.3488  138.4872  157.9154 O.3     1  UNL1       -0.3484
     26 C         140.7285  141.8084  167.3001 C.3     1  UNL1        0.1556
     27 N         141.7091  142.2506  168.3456 N.ar    1  UNL1       -0.2255
     28 C         143.2019  142.1304  168.2614 C.ar    1  UNL1        0.1975
     29 N         143.7844  142.6962  169.5225 N.ar    1  UNL1       -0.2007
     30 C         142.6517  143.1661  170.3862 C.ar    1  UNL1        0.2210
     31 N         141.3690  142.8908  169.6588 N.ar    1  UNL1       -0.1448
@<TRIPOS>BOND
     1    24    25    1
     2    25    23    1
     3    23    22    1
     4    22    21    1
     5    21    20    1
     6    20    18    1
     7    18    19    3
     8    19    13    1
     9    13    14   ar
    10    14    15   ar
    11    15     1    1
    12     1     2    2
    13     2     3    1
    14     3     4    2
    15     4     5    1
    16     5     6    1
    17     6     7    1
    18     7     8   ar
    19     8     9   ar
    20     9    26    1
    21    26    27    1
    22    27    28   ar
    23    28    29   ar
    24    29    30   ar
    25    30    31   ar
    26     9    10   ar
    27    10    11   ar
    28    11    12   ar
    29    15    16   ar
    30    16    17   ar
    31    17    13   ar
    32     5     1    1
    33    12     7   ar
    34    12     4    1
    35    31    27   ar
@<TRIPOS>MOLECULE
*****
 31 35 0 0 0
SMALL
GASTEIGER

@<TRIPOS>ATOM
      1 C         140.6216  145.1489  160.1834 C.2     1  UNL1        0.0866
      2 N         139.6271  146.2637  160.3179 N.2     1  UNL1       -0.1523
      3 N         139.1087  146.2553  161.7254 N.2     1  UNL1       -0.1523
      4 C         139.7829  145.1352  162.4610 C.2     1  UNL1        0.0858
      5 C         140.7179  144.4514  161.5079 C.3     1  UNL1        0.0883
      6 C         141.3920  143.3314  162.2435 C.3     1  UNL1        0.0384
      7 C         140.8737  143.3229  163.6510 C.ar    1  UNL1       -0.0205
      8 C         141.1788  142.4441  164.8277 C.ar    1  UNL1       -0.0065
      9 C         140.4894  142.6801  166.1388 C.ar    1  UNL1        0.0019
     10 C         139.4949  143.7950  166.2732 C.ar    1  UNL1       -0.0023
     11 C         139.1898  144.6738  165.0965 C.ar    1  UNL1        0.0007
     12 C         139.8792  144.4378  163.7855 C.ar    1  UNL1        0.0117
     13 C         142.8146  143.6254  157.3665 C.ar    1  UNL1        0.0710
     14 C         142.2444  143.5786  158.7531 C.ar    1  UNL1        0.0165
     15 C         141.3856  144.7938  158.9424 C.ar    1  UNL1        0.0233
     16 C         141.4251  145.5917  157.6728 C.ar    1  UNL1        0.0373
     17 S         142.3082  144.8695  156.6988 S.2     1  UNL1       -0.0780
     18 C         144.6461  141.5885  156.1434 C.1     1  UNL1       -0.0534
     19 C         143.7304  142.6069  156.7550 C.1     1  UNL1       -0.0554
     20 C         145.5619  140.5700  155.5318 C.3     1  UNL1        0.2182
     21 O         146.4821  140.9636  154.4146 O.3     1  UNL1       -0.3374
     22 C         147.5072  142.0373  154.6302 C.3     1  UNL1        0.1755
     23 C         148.7023  141.7701  155.4963 C.3     1  UNL1        0.1743
     24 C         147.5966  143.1007  157.4346 C.3     1  UNL1        0.1742
     25 O         148.7359  142.2805  156.9064 O.3     1  UNL1       -0.3484
     26 C         140.7945  141.8013  167.3155 C.3     1  UNL1        0.1556
     27 N         141.7743  142.2554  168.3566 N.ar    1  UNL1       -0.2255
     28 C         143.2690  142.1885  168.2495 C.ar    1  UNL1        0.1975
     29 N         143.8499  142.7478  169.5143 N.ar    1  UNL1       -0.2007
     30 C         142.7143  143.1604  170.4031 C.ar    1  UNL1        0.2210
     31 N         141.4315  142.8561  169.6876 N.ar    1  UNL1       -0.1448
@<TRIPOS>BOND
     1    24    25    1
     2    25    23    1
     3    23    22    1
     4    22    21    1
     5    21    20    1
     6    20    18    1
     7    18    19    3
     8    19    13    1
     9    13    14   ar
    10    14    15   ar
    11    15     1    1
    12     1     2    2
    13     2     3    1
    14     3     4    2
    15     4     5    1
    16     5     6    1
    17     6     7    1
    18     7     8   ar
    19     8     9   ar
    20     9    26    1
    21    26    27    1
    22    27    28   ar
    23    28    29   ar
    24    29    30   ar
    25    30    31   ar
    26     9    10   ar
    27    10    11   ar
    28    11    12   ar
    29    15    16   ar
    30    16    17   ar
    31    17    13   ar
    32     5     1    1
    33    12     7   ar
    34    12     4    1
    35    31    27   ar
@<TRIPOS>MOLECULE
*****
 31 35 0 0 0
SMALL
GASTEIGER

@<TRIPOS>ATOM
      1 C         140.4431  139.3306  161.4016 C.2     1  UNL1        0.0866
      2 N         140.6960  137.8529  161.4512 N.2     1  UNL1       -0.1523
      3 N         141.2767  137.5268  162.7953 N.2     1  UNL1       -0.1523
      4 C         141.3828  138.8031  163.5763 C.2     1  UNL1        0.0858
      5 C         140.8676  139.9178  162.7150 C.3     1  UNL1        0.0883
      6 C         140.9736  141.1940  163.4960 C.3     1  UNL1        0.0384
      7 C         141.5544  140.8681  164.8401 C.ar    1  UNL1       -0.0205
      8 C         141.8856  141.7259  166.0251 C.ar    1  UNL1       -0.0065
      9 C         142.4697  141.1060  167.2598 C.ar    1  UNL1        0.0019
     10 C         142.7226  139.6283  167.3095 C.ar    1  UNL1       -0.0023
     11 C         142.3914  138.7705  166.1244 C.ar    1  UNL1        0.0007
     12 C         141.8073  139.3904  164.8897 C.ar    1  UNL1        0.0117
     13 C         138.4097  140.7681  158.4243 C.ar    1  UNL1        0.0710
     14 C         138.6050  139.7476  159.5062 C.ar    1  UNL1        0.0165
     15 C         139.8669  140.0880  160.2422 C.ar    1  UNL1        0.0233
     16 C         140.4515  141.3190  159.6152 C.ar    1  UNL1        0.0373
     17 S         139.5508  141.7393  158.4917 S.2     1  UNL1       -0.0780
     18 C         136.1359  140.8520  156.4692 C.1     1  UNL1       -0.0534
     19 C         137.2727  140.8100  157.4468 C.1     1  UNL1       -0.0554
     20 C         134.9990  140.8938  155.4916 C.3     1  UNL1        0.2182
     21 O         133.5842  140.9401  155.9879 O.3     1  UNL1       -0.3374
     22 C         133.1404  140.0082  157.0764 C.3     1  UNL1        0.1755
     23 C         132.8108  138.5809  156.7536 C.3     1  UNL1        0.1743
     24 C         130.3887  138.3126  157.6545 C.3     1  UNL1        0.1742
     25 O         131.3839  138.1702  156.5413 O.3     1  UNL1       -0.3484
     26 C         142.8010  141.9639  168.4450 C.3     1  UNL1        0.1556
     27 N         141.7818  142.1773  169.5246 N.ar    1  UNL1       -0.2255
     28 C         141.8889  141.7046  170.9441 C.ar    1  UNL1        0.1975
     29 N         140.6498  142.1360  171.6712 N.ar    1  UNL1       -0.2007
     30 C         139.7769  142.8754  170.7010 C.ar    1  UNL1        0.2210
     31 N         140.4765  142.9009  169.3743 N.ar    1  UNL1       -0.1448
@<TRIPOS>BOND
     1    24    25    1
     2    25    23    1
     3    23    22    1
     4    22    21    1
     5    21    20    1
     6    20    18    1
     7    18    19    3
     8    19    13    1
     9    13    14   ar
    10    14    15   ar
    11    15     1    1
    12     1     2    2
    13     2     3    1
    14     3     4    2
    15     4     5    1
    16     5     6    1
    17     6     7    1
    18     7     8   ar
    19     8     9   ar
    20     9    26    1
    21    26    27    1
    22    27    28   ar
    23    28    29   ar
    24    29    30   ar
    25    30    31   ar
    26     9    10   ar
    27    10    11   ar
    28    11    12   ar
    29    15    16   ar
    30    16    17   ar
    31    17    13   ar
    32     5     1    1
    33    12     7   ar
    34    12     4    1
    35    31    27   ar
@<TRIPOS>MOLECULE
*****
 31 35 0 0 0
SMALL
GASTEIGER

@<TRIPOS>ATOM
      1 C         140.6700  143.3827  161.7971 C.2     1  UNL1        0.0866
      2 N         141.2752  144.6501  161.2705 N.2     1  UNL1       -0.1523
      3 N         140.8198  144.8269  159.8522 N.2     1  UNL1       -0.1523
      4 C         139.9331  143.6687  159.5024 C.2     1  UNL1        0.0858
      5 C         139.8405  142.7761  160.7044 C.3     1  UNL1        0.0883
      6 C         138.9538  141.6180  160.3545 C.3     1  UNL1        0.0384
      7 C         138.4983  141.7947  158.9363 C.ar    1  UNL1       -0.0205
      8 C         137.6107  140.9653  158.0565 C.ar    1  UNL1       -0.0065
      9 C         137.3283  141.4034  156.6500 C.ar    1  UNL1        0.0019
     10 C         137.9335  142.6708  156.1233 C.ar    1  UNL1       -0.0023
     11 C         138.8211  143.5002  157.0032 C.ar    1  UNL1        0.0007
     12 C         139.1036  143.0621  158.4097 C.ar    1  UNL1        0.0117
     13 C         140.8504  142.5743  165.5891 C.ar    1  UNL1        0.0710
     14 C         140.4810  143.4916  164.4612 C.ar    1  UNL1        0.0165
     15 C         140.8608  142.8205  163.1746 C.ar    1  UNL1        0.0233
     16 C         141.4649  141.4884  163.5073 C.ar    1  UNL1        0.0373
     17 S         141.4585  141.3363  164.9997 S.2     1  UNL1       -0.0780
     18 C         140.4442  143.1200  168.5109 C.1     1  UNL1       -0.0534
     19 C         140.6473  142.8472  167.0501 C.1     1  UNL1       -0.0554
     20 C         140.2411  143.3928  169.9719 C.3     1  UNL1        0.2182
     21 O         139.8471  142.2784  170.8953 O.3     1  UNL1       -0.3374
     22 C         140.6984  141.0470  170.9908 C.3     1  UNL1        0.1755
     23 C         140.4944  139.9175  170.0251 C.3     1  UNL1        0.1743
     24 C         139.1501  139.6792  167.8146 C.3     1  UNL1        0.1742
     25 O         139.1835  139.7682  169.3116 O.3     1  UNL1       -0.3484
     26 C         136.4406  140.5739  155.7700 C.3     1  UNL1        0.1556
     27 N         134.9681  140.5006  156.0461 N.ar    1  UNL1       -0.2255
     28 C         133.8892  141.1910  155.2654 C.ar    1  UNL1        0.1975
     29 N         132.5702  140.8411  155.8882 N.ar    1  UNL1       -0.2007
     30 C         132.8339  139.9346  157.0538 C.ar    1  UNL1        0.2210
     31 N         134.3158  139.7241  157.1514 N.ar    1  UNL1       -0.1448
@<TRIPOS>BOND
     1    24    25    1
     2    25    23    1
     3    23    22    1
     4    22    21    1
     5    21    20    1
     6    20    18    1
     7    18    19    3
     8    19    13    1
     9    13    14   ar
    10    14    15   ar
    11    15     1    1
    12     1     2    2
    13     2     3    1
    14     3     4    2
    15     4     5    1
    16     5     6    1
    17     6     7    1
    18     7     8   ar
    19     8     9   ar
    20     9    26    1
    21    26    27    1
    22    27    28   ar
    23    28    29   ar
    24    29    30   ar
    25    30    31   ar
    26     9    10   ar
    27    10    11   ar
    28    11    12   ar
    29    15    16   ar
    30    16    17   ar
    31    17    13   ar
    32     5     1    1
    33    12     7   ar
    34    12     4    1
    35    31    27   ar
@<TRIPOS>MOLECULE
*****
 31 35 0 0 0
SMALL
GASTEIGER

@<TRIPOS>ATOM
      1 C         140.6052  144.5064  161.1129 C.2     1  UNL1        0.0866
      2 N         139.2766  145.1694  161.3252 N.2     1  UNL1       -0.1523
      3 N         138.8901  144.9833  162.7626 N.2     1  UNL1       -0.1523
      4 C         139.9800  144.2053  163.4386 C.2     1  UNL1        0.0858
      5 C         141.0399  143.9106  162.4190 C.3     1  UNL1        0.0883
      6 C         142.1298  143.1326  163.0951 C.3     1  UNL1        0.0384
      7 C         141.7434  142.9465  164.5325 C.ar    1  UNL1       -0.0205
      8 C         142.4297  142.2590  165.6754 C.ar    1  UNL1       -0.0065
      9 C         141.7874  142.2345  167.0306 C.ar    1  UNL1        0.0019
     10 C         140.4587  142.8975  167.2429 C.ar    1  UNL1       -0.0023
     11 C         139.7724  143.5850  166.1000 C.ar    1  UNL1        0.0007
     12 C         140.4147  143.6095  164.7448 C.ar    1  UNL1        0.0117
     13 C         142.8287  143.7010  158.0351 C.ar    1  UNL1        0.0710
     14 C         142.2865  143.3472  159.3881 C.ar    1  UNL1        0.0165
     15 C         141.3657  144.4493  159.8212 C.ar    1  UNL1        0.0233
     16 C         141.3388  145.4843  158.7358 C.ar    1  UNL1        0.0373
     17 S         142.2430  145.0218  157.6319 S.2     1  UNL1       -0.0780
     18 C         144.7475  142.0560  156.4191 C.1     1  UNL1       -0.0534
     19 C         143.7881  142.8785  157.2271 C.1     1  UNL1       -0.0554
     20 C         145.7070  141.2335  155.6110 C.3     1  UNL1        0.2182
     21 O         145.7208  139.7405  155.7547 O.3     1  UNL1       -0.3374
     22 C         144.4466  138.9616  155.6141 C.3     1  UNL1        0.1755
     23 C         144.4943  137.4970  155.2939 C.3     1  UNL1        0.1743
     24 C         143.8043  135.0538  155.8459 C.3     1  UNL1        0.1742
     25 O         143.8537  136.5056  156.2195 O.3     1  UNL1       -0.3484
     26 C         142.4737  141.5470  168.1736 C.3     1  UNL1        0.1556
     27 N         141.6920  141.1581  169.3933 N.ar    1  UNL1       -0.2255
     28 C         141.7120  141.8653  170.7160 C.ar    1  UNL1        0.1975
     29 N         140.7854  141.1380  171.6446 N.ar    1  UNL1       -0.2007
     30 C         140.1927  139.9812  170.8959 C.ar    1  UNL1        0.2210
     31 N         140.7530  139.9937  169.5045 N.ar    1  UNL1       -0.1448
@<TRIPOS>BOND
     1    24    25    1
     2    25    23    1
     3    23    22    1
     4    22    21    1
     5    21    20    1
     6    20    18    1
     7    18    19    3
     8    19    13    1
     9    13    14   ar
    10    14    15   ar
    11    15     1    1
    12     1     2    2
    13     2     3    1
    14     3     4    2
    15     4     5    1
    16     5     6    1
    17     6     7    1
    18     7     8   ar
    19     8     9   ar
    20     9    26    1
    21    26    27    1
    22    27    28   ar
    23    28    29   ar
    24    29    30   ar
    25    30    31   ar
    26     9    10   ar
    27    10    11   ar
    28    11    12   ar
    29    15    16   ar
    30    16    17   ar
    31    17    13   ar
    32     5     1    1
    33    12     7   ar
    34    12     4    1
    35    31    27   ar
@<TRIPOS>MOLECULE
*****
 31 35 0 0 0
SMALL
GASTEIGER

@<TRIPOS>ATOM
      1 C         143.3554  142.1165  161.0912 C.2     1  UNL1        0.0866
      2 N         144.1443  143.3921  161.1139 N.2     1  UNL1       -0.1523
      3 N         144.3518  143.7834  162.5471 N.2     1  UNL1       -0.1523
      4 C         143.6910  142.7496  163.4101 C.2     1  UNL1        0.0858
      5 C         143.0753  141.7195  162.5103 C.3     1  UNL1        0.0883
      6 C         142.4145  140.6857  163.3733 C.3     1  UNL1        0.0384
      7 C         142.6219  141.0770  164.8065 C.ar    1  UNL1       -0.0205
      8 C         142.1943  140.4365  166.0937 C.ar    1  UNL1       -0.0065
      9 C         142.5556  141.0717  167.4036 C.ar    1  UNL1        0.0019
     10 C         143.3445  142.3473  167.4264 C.ar    1  UNL1       -0.0023
     11 C         143.7721  142.9877  166.1392 C.ar    1  UNL1        0.0007
     12 C         143.4108  142.3526  164.8292 C.ar    1  UNL1        0.0117
     13 C         142.6800  139.6355  158.1837 C.ar    1  UNL1        0.0710
     14 C         143.3532  139.9854  159.4777 C.ar    1  UNL1        0.0165
     15 C         142.9227  141.3692  159.8647 C.ar    1  UNL1        0.0233
     16 C         141.9834  141.8746  158.8100 C.ar    1  UNL1        0.0373
     17 S         141.8334  140.8030  157.7710 S.2     1  UNL1       -0.0780
     18 C         142.9750  137.0539  156.6844 C.1     1  UNL1       -0.0534
     19 C         142.8275  138.3447  157.4340 C.1     1  UNL1       -0.0554
     20 C         143.1225  135.7630  155.9348 C.3     1  UNL1        0.2182
     21 O         143.6894  134.5567  156.6228 O.3     1  UNL1       -0.3374
     22 C         143.1902  133.1873  156.2683 C.3     1  UNL1        0.1755
     23 C         144.1420  132.1556  155.7397 C.3     1  UNL1        0.1743
     24 C         145.4934  132.0282  157.9550 C.3     1  UNL1        0.1742
     25 O         145.4259  131.8784  156.4640 O.3     1  UNL1       -0.3484
     26 C         142.1280  140.4312  168.6909 C.3     1  UNL1        0.1556
     27 N         141.3504  141.2228  169.7004 N.ar    1  UNL1       -0.2255
     28 C         141.5341  141.1765  171.1883 C.ar    1  UNL1        0.1975
     29 N         140.5499  142.1246  171.8067 N.ar    1  UNL1       -0.2007
     30 C         139.7579  142.7570  170.7008 C.ar    1  UNL1        0.2210
     31 N         140.2527  142.1996  169.3990 N.ar    1  UNL1       -0.1448
@<TRIPOS>BOND
     1    24    25    1
     2    25    23    1
     3    23    22    1
     4    22    21    1
     5    21    20    1
     6    20    18    1
     7    18    19    3
     8    19    13    1
     9    13    14   ar
    10    14    15   ar
    11    15     1    1
    12     1     2    2
    13     2     3    1
    14     3     4    2
    15     4     5    1
    16     5     6    1
    17     6     7    1
    18     7     8   ar
    19     8     9   ar
    20     9    26    1
    21    26    27    1
    22    27    28   ar
    23    28    29   ar
    24    29    30   ar
    25    30    31   ar
    26     9    10   ar
    27    10    11   ar
    28    11    12   ar
    29    15    16   ar
    30    16    17   ar
    31    17    13   ar
    32     5     1    1
    33    12     7   ar
    34    12     4    1
    35    31    27   ar
