@<TRIPOS>MOLECULE
*****
 29 33 0 0 0
SMALL
GASTEIGER

@<TRIPOS>ATOM
      1 C         140.5839  140.3755  170.3985 C.3     1  UNL1        0.0438
      2 C         140.8431  141.1185  169.1214 C.3     1  UNL1        0.1398
      3 C         141.8255  141.8029  170.0250 C.3     1  UNL1        0.0438
      4 O         141.4435  142.0992  168.1582 O.3     1  UNL1       -0.4826
      5 C         140.9715  142.1375  166.7349 C.ar    1  UNL1        0.1360
      6 C         141.5719  143.1182  165.7717 C.ar    1  UNL1        0.0366
      7 C         141.0999  143.1565  164.3485 C.ar    1  UNL1        0.0032
      8 C         140.0274  142.2141  163.8884 C.ar    1  UNL1        0.0036
      9 C         139.4270  141.2334  164.8516 C.ar    1  UNL1        0.0008
     10 C         139.8990  141.1951  166.2749 C.ar    1  UNL1        0.0357
     11 C         139.2986  140.2144  167.2381 C.3     1  UNL1        0.1580
     12 C         138.7282  140.1364  165.8529 C.3     1  UNL1        0.2351
     13 O         137.6853  139.0582  165.8412 O.2     1  UNL1       -0.4478
     14 C         137.6112  138.4700  167.2190 C.2     1  UNL1        0.2770
     15 N         136.7000  137.3618  167.6566 N.pl3   1  UNL1       -0.3133
     16 N         138.6083  139.1845  168.0823 N.2     1  UNL1       -0.2202
     17 C         139.7707  140.1761  168.6613 C.3     1  UNL1        0.1141
     18 C         139.9382  140.4497  168.3926 C.3     1  UNL1        0.1501
     19 O         139.7621  140.1621  168.6751 O.3     1  UNL1       -0.3532
     20 C         139.9382  140.4497  168.3926 C.3     1  UNL1        0.1501
     21 H         136.0767  136.9537  167.0129 H       1  UNL1        0.1466
     22 H         136.7252  137.0424  168.5875 H       1  UNL1        0.1466
     23 C         139.5554  142.2523  162.4651 C.ar    1  UNL1        0.0460
     24 C         140.3828  141.6238  161.3833 C.ar    1  UNL1        0.0054
     25 C         139.9108  141.6620  159.9601 C.ar    1  UNL1        0.0208
     26 C         138.6113  142.3289  159.6185 C.ar    1  UNL1        0.1013
     27 N         137.7839  142.9575  160.7002 N.ar    1  UNL1       -0.2165
     28 C         138.2559  142.9192  162.1236 C.ar    1  UNL1        0.2222
     29 F         137.4284  143.5478  163.2053 F       1  UNL1       -0.1832
@<TRIPOS>BOND
     1     1     2    1
     2     2     3    1
     3     2     4    1
     4     4     5    1
     5     5     6   ar
     6     6     7   ar
     7     7     8   ar
     8     8    23    1
     9    23    24   ar
    10    24    25   ar
    11    25    26   ar
    12    26    27   ar
    13    27    28   ar
    14    28    29    1
    15     8     9   ar
    16     9    10   ar
    17    10    11    1
    18    11    12    1
    19    12    13    1
    20    13    14    1
    21    14    15    1
    22    14    16    2
    23    11    17    1
    24    17    18    1
    25    18    19    1
    26    19    20    1
    27    17     2    1
    28    10     5   ar
    29    16    11    1
    30    20    17    1
    31    28    23   ar
    32    15    21    1
    33    15    22    1
@<TRIPOS>MOLECULE
*****
 29 33 0 0 0
SMALL
GASTEIGER

@<TRIPOS>ATOM
      1 C         140.5197  143.1892  169.9569 C.3     1  UNL1        0.0438
      2 C         141.1745  142.0493  169.2342 C.3     1  UNL1        0.1398
      3 C         141.5502  141.7125  170.6468 C.3     1  UNL1        0.0438
      4 O         141.9597  140.7925  169.0022 O.3     1  UNL1       -0.4826
      5 C         142.1418  140.2684  167.6086 C.ar    1  UNL1        0.1360
      6 C         142.9270  139.0116  167.3766 C.ar    1  UNL1        0.0366
      7 C         143.1091  138.4875  165.9830 C.ar    1  UNL1        0.0032
      8 C         142.5060  139.2202  164.8213 C.ar    1  UNL1        0.0036
      9 C         141.7208  140.4771  165.0533 C.ar    1  UNL1        0.0008
     10 C         141.5387  141.0011  166.4470 C.ar    1  UNL1        0.0357
     11 C         140.7535  142.2580  166.6790 C.3     1  UNL1        0.1580
     12 C         140.8508  141.8568  165.2369 C.3     1  UNL1        0.2351
     13 O         140.1046  142.8715  164.4222 O.2     1  UNL1       -0.4478
     14 C         139.5461  143.8997  165.3607 C.2     1  UNL1        0.2770
     15 N         138.7299  145.0968  164.9726 N.pl3   1  UNL1       -0.3133
     16 N         139.9471  143.5205  166.7556 N.2     1  UNL1       -0.2202
     17 C         140.5714  142.7820  168.0726 C.3     1  UNL1        0.1141
     18 C         140.7904  142.4314  168.0079 C.3     1  UNL1        0.1501
     19 O         140.5602  142.8000  168.0759 O.3     1  UNL1       -0.3532
     20 C         140.7904  142.4314  168.0079 C.3     1  UNL1        0.1501
     21 H         138.5174  145.2617  164.0256 H       1  UNL1        0.1466
     22 H         138.4068  145.7177  165.6650 H       1  UNL1        0.1466
     23 C         142.6881  138.6962  163.4277 C.ar    1  UNL1        0.0460
     24 C         143.9778  138.9338  162.6996 C.ar    1  UNL1        0.0054
     25 C         144.1599  138.4097  161.3060 C.ar    1  UNL1        0.0208
     26 C         143.0523  137.6480  160.6405 C.ar    1  UNL1        0.1013
     27 N         141.7626  137.4103  161.3685 N.ar    1  UNL1       -0.2165
     28 C         141.5805  137.9344  162.7622 C.ar    1  UNL1        0.2222
     29 F         140.2908  137.6967  163.4903 F       1  UNL1       -0.1832
@<TRIPOS>BOND
     1     1     2    1
     2     2     3    1
     3     2     4    1
     4     4     5    1
     5     5     6   ar
     6     6     7   ar
     7     7     8   ar
     8     8    23    1
     9    23    24   ar
    10    24    25   ar
    11    25    26   ar
    12    26    27   ar
    13    27    28   ar
    14    28    29    1
    15     8     9   ar
    16     9    10   ar
    17    10    11    1
    18    11    12    1
    19    12    13    1
    20    13    14    1
    21    14    15    1
    22    14    16    2
    23    11    17    1
    24    17    18    1
    25    18    19    1
    26    19    20    1
    27    17     2    1
    28    10     5   ar
    29    16    11    1
    30    20    17    1
    31    28    23   ar
    32    15    21    1
    33    15    22    1
@<TRIPOS>MOLECULE
*****
 29 33 0 0 0
SMALL
GASTEIGER

@<TRIPOS>ATOM
      1 C         142.9361  141.8566  170.2964 C.3     1  UNL1        0.0438
      2 C         141.7995  141.2069  169.5640 C.3     1  UNL1        0.1398
      3 C         141.4611  140.8139  170.9715 C.3     1  UNL1        0.0438
      4 O         140.5455  140.4207  169.3205 O.3     1  UNL1       -0.4826
      5 C         140.0246  140.2532  167.9238 C.ar    1  UNL1        0.1360
      6 C         138.7706  139.4670  167.6803 C.ar    1  UNL1        0.0366
      7 C         138.2497  139.2995  166.2837 C.ar    1  UNL1        0.0032
      8 C         138.9829  139.9182  165.1305 C.ar    1  UNL1        0.0036
      9 C         140.2370  140.7044  165.3740 C.ar    1  UNL1        0.0008
     10 C         140.7578  140.8719  166.7708 C.ar    1  UNL1        0.0357
     11 C         142.0119  141.6580  167.0143 C.3     1  UNL1        0.1580
     12 C         141.6138  141.5763  165.5703 C.3     1  UNL1        0.2351
     13 O         142.6278  142.3348  164.7663 O.2     1  UNL1       -0.4478
     14 C         143.6525  142.8854  165.7132 C.2     1  UNL1        0.2770
     15 N         144.8480  143.7096  165.3370 N.pl3   1  UNL1       -0.3133
     16 N         143.2719  142.4671  167.1026 N.2     1  UNL1       -0.2202
     17 C         142.5327  141.8256  168.4109 C.3     1  UNL1        0.1141
     18 C         142.1829  141.6062  168.3430 C.3     1  UNL1        0.1501
     19 O         142.5506  141.8368  168.4144 O.3     1  UNL1       -0.3532
     20 C         142.1829  141.6062  168.3430 C.3     1  UNL1        0.1501
     21 H         145.0141  143.9335  164.3928 H       1  UNL1        0.1466
     22 H         145.4666  144.0265  166.0342 H       1  UNL1        0.1466
     23 C         138.4621  139.7507  163.7339 C.ar    1  UNL1        0.0460
     24 C         138.6088  138.4333  163.0316 C.ar    1  UNL1        0.0054
     25 C         138.0879  138.2658  161.6350 C.ar    1  UNL1        0.0208
     26 C         137.4203  139.4156  160.9406 C.ar    1  UNL1        0.1013
     27 N         137.2736  140.7330  161.6427 N.ar    1  UNL1       -0.2165
     28 C         137.7945  140.9005  163.0394 C.ar    1  UNL1        0.2222
     29 F         137.6478  142.2178  163.7416 F       1  UNL1       -0.1832
@<TRIPOS>BOND
     1     1     2    1
     2     2     3    1
     3     2     4    1
     4     4     5    1
     5     5     6   ar
     6     6     7   ar
     7     7     8   ar
     8     8    23    1
     9    23    24   ar
    10    24    25   ar
    11    25    26   ar
    12    26    27   ar
    13    27    28   ar
    14    28    29    1
    15     8     9   ar
    16     9    10   ar
    17    10    11    1
    18    11    12    1
    19    12    13    1
    20    13    14    1
    21    14    15    1
    22    14    16    2
    23    11    17    1
    24    17    18    1
    25    18    19    1
    26    19    20    1
    27    17     2    1
    28    10     5   ar
    29    16    11    1
    30    20    17    1
    31    28    23   ar
    32    15    21    1
    33    15    22    1
@<TRIPOS>MOLECULE
*****
 29 33 0 0 0
SMALL
GASTEIGER

@<TRIPOS>ATOM
      1 C         139.5533  141.6128  170.1552 C.3     1  UNL1        0.0438
      2 C         140.4855  141.6644  168.9811 C.3     1  UNL1        0.1398
      3 C         141.0893  142.7353  169.8404 C.3     1  UNL1        0.0438
      4 O         141.6274  142.0879  168.1055 O.3     1  UNL1       -0.4826
      5 C         141.8417  141.4226  166.7783 C.ar    1  UNL1        0.1360
      6 C         142.9837  141.8462  165.9027 C.ar    1  UNL1        0.0366
      7 C         143.1980  141.1809  164.5756 C.ar    1  UNL1        0.0032
      8 C         142.2703  140.0920  164.1239 C.ar    1  UNL1        0.0036
      9 C         141.1284  139.6684  164.9995 C.ar    1  UNL1        0.0008
     10 C         140.9141  140.3338  166.3267 C.ar    1  UNL1        0.0357
     11 C         139.7722  139.9103  167.2023 C.3     1  UNL1        0.1580
     12 C         139.8604  139.1573  165.9079 C.3     1  UNL1        0.2351
     13 O         138.7362  138.1648  165.8715 O.2     1  UNL1       -0.4478
     14 C         137.9532  138.3044  167.1432 C.2     1  UNL1        0.2770
     15 N         136.7425  137.5056  167.5254 N.pl3   1  UNL1       -0.3133
     16 N         138.5935  139.3832  167.9658 N.2     1  UNL1       -0.2202
     17 C         139.5579  140.5756  168.5295 C.3     1  UNL1        0.1141
     18 C         139.8765  140.6937  168.2852 C.3     1  UNL1        0.1501
     19 O         139.5416  140.5695  168.5420 O.3     1  UNL1       -0.3532
     20 C         139.8765  140.6937  168.2852 C.3     1  UNL1        0.1501
     21 H         136.3954  136.8155  166.9151 H       1  UNL1        0.1466
     22 H         136.2951  137.6714  168.3865 H       1  UNL1        0.1466
     23 C         142.4847  139.4267  162.7968 C.ar    1  UNL1        0.0460
     24 C         141.3866  139.4206  161.7748 C.ar    1  UNL1        0.0054
     25 C         141.6009  138.7553  160.4476 C.ar    1  UNL1        0.0208
     26 C         142.9133  138.0961  160.1423 C.ar    1  UNL1        0.1013
     27 N         144.0113  138.1021  161.1642 N.ar    1  UNL1       -0.2165
     28 C         143.7970  138.7674  162.4915 C.ar    1  UNL1        0.2222
     29 F         144.8950  138.7735  163.5134 F       1  UNL1       -0.1832
@<TRIPOS>BOND
     1     1     2    1
     2     2     3    1
     3     2     4    1
     4     4     5    1
     5     5     6   ar
     6     6     7   ar
     7     7     8   ar
     8     8    23    1
     9    23    24   ar
    10    24    25   ar
    11    25    26   ar
    12    26    27   ar
    13    27    28   ar
    14    28    29    1
    15     8     9   ar
    16     9    10   ar
    17    10    11    1
    18    11    12    1
    19    12    13    1
    20    13    14    1
    21    14    15    1
    22    14    16    2
    23    11    17    1
    24    17    18    1
    25    18    19    1
    26    19    20    1
    27    17     2    1
    28    10     5   ar
    29    16    11    1
    30    20    17    1
    31    28    23   ar
    32    15    21    1
    33    15    22    1
@<TRIPOS>MOLECULE
*****
 29 33 0 0 0
SMALL
GASTEIGER

@<TRIPOS>ATOM
      1 C         142.3132  142.7109  170.6427 C.3     1  UNL1        0.0438
      2 C         141.3736  141.8437  169.8583 C.3     1  UNL1        0.1398
      3 C         140.7972  141.6757  171.2328 C.3     1  UNL1        0.0438
      4 O         140.2338  140.9182  169.5513 O.3     1  UNL1       -0.4826
      5 C         139.9968  140.4618  168.1422 C.ar    1  UNL1        0.1360
      6 C         138.8570  139.5363  167.8353 C.ar    1  UNL1        0.0366
      7 C         138.6200  139.0800  166.4262 C.ar    1  UNL1        0.0032
      8 C         139.5229  139.5492  165.3240 C.ar    1  UNL1        0.0036
      9 C         140.6627  140.4747  165.6309 C.ar    1  UNL1        0.0008
     10 C         140.8996  140.9310  167.0401 C.ar    1  UNL1        0.0357
     11 C         142.0394  141.8566  167.3471 C.3     1  UNL1        0.1580
     12 C         141.9271  141.4869  165.8976 C.3     1  UNL1        0.2351
     13 O         143.0314  142.1798  165.1556 O.2     1  UNL1       -0.4478
     14 C         143.8263  142.9776  166.1464 C.2     1  UNL1        0.2770
     15 N         145.0239  143.8261  165.8371 N.pl3   1  UNL1       -0.3133
     16 N         143.2132  142.7778  167.5008 N.2     1  UNL1       -0.2202
     17 C         142.2764  142.3129  168.7562 C.3     1  UNL1        0.1141
     18 C         141.9584  142.0547  168.6705 C.3     1  UNL1        0.1501
     19 O         142.2927  142.3261  168.7605 O.3     1  UNL1       -0.3532
     20 C         141.9584  142.0547  168.6705 C.3     1  UNL1        0.1501
     21 H         145.3530  143.8944  164.9117 H       1  UNL1        0.1466
     22 H         145.4808  144.3147  166.5594 H       1  UNL1        0.1466
     23 C         139.2859  139.0929  163.9149 C.ar    1  UNL1        0.0460
     24 C         138.1372  139.6519  163.1286 C.ar    1  UNL1        0.0054
     25 C         137.9002  139.1956  161.7196 C.ar    1  UNL1        0.0208
     26 C         138.8118  138.1803  161.0966 C.ar    1  UNL1        0.1013
     27 N         139.9605  137.6213  161.8828 N.ar    1  UNL1       -0.2165
     28 C         140.1975  138.0776  163.2920 C.ar    1  UNL1        0.2222
     29 F         141.3462  137.5186  164.0781 F       1  UNL1       -0.1832
@<TRIPOS>BOND
     1     1     2    1
     2     2     3    1
     3     2     4    1
     4     4     5    1
     5     5     6   ar
     6     6     7   ar
     7     7     8   ar
     8     8    23    1
     9    23    24   ar
    10    24    25   ar
    11    25    26   ar
    12    26    27   ar
    13    27    28   ar
    14    28    29    1
    15     8     9   ar
    16     9    10   ar
    17    10    11    1
    18    11    12    1
    19    12    13    1
    20    13    14    1
    21    14    15    1
    22    14    16    2
    23    11    17    1
    24    17    18    1
    25    18    19    1
    26    19    20    1
    27    17     2    1
    28    10     5   ar
    29    16    11    1
    30    20    17    1
    31    28    23   ar
    32    15    21    1
    33    15    22    1
@<TRIPOS>MOLECULE
*****
 29 33 0 0 0
SMALL
GASTEIGER

@<TRIPOS>ATOM
      1 C         143.8312  139.7110  160.4761 C.3     1  UNL1        0.0438
      2 C         143.6710  139.3483  161.9228 C.3     1  UNL1        0.1398
      3 C         143.9926  137.9998  161.3501 C.3     1  UNL1        0.0438
      4 O         143.6225  138.5171  163.1706 O.3     1  UNL1       -0.4826
      5 C         143.3080  139.1605  164.4886 C.ar    1  UNL1        0.1360
      6 C         143.2595  138.3294  165.7363 C.ar    1  UNL1        0.0366
      7 C         142.9450  138.9728  167.0543 C.ar    1  UNL1        0.0032
      8 C         142.6790  140.4474  167.1246 C.ar    1  UNL1        0.0036
      9 C         142.7276  141.2785  165.8768 C.ar    1  UNL1        0.0008
     10 C         143.0420  140.6351  164.5588 C.ar    1  UNL1        0.0357
     11 C         143.0906  141.4662  163.3111 C.3     1  UNL1        0.1580
     12 C         142.7647  142.2453  164.5508 C.3     1  UNL1        0.2351
     13 O         142.5765  143.6812  164.1598 O.2     1  UNL1       -0.4478
     14 C         142.7861  143.7896  162.6785 C.2     1  UNL1        0.2770
     15 N         142.6941  145.0462  161.8647 N.pl3   1  UNL1       -0.3133
     16 N         143.1038  142.4206  162.1539 N.2     1  UNL1       -0.2202
     17 C         143.4050  140.8228  161.9931 C.3     1  UNL1        0.1141
     18 C         143.3915  140.5909  162.3412 C.3     1  UNL1        0.1501
     19 O         143.4057  140.8347  161.9753 O.3     1  UNL1       -0.3532
     20 C         143.3915  140.5909  162.3412 C.3     1  UNL1        0.1501
     21 H         142.4787  145.9014  162.3022 H       1  UNL1        0.1466
     22 H         142.8491  145.0158  160.8929 H       1  UNL1        0.1466
     23 C         142.3646  141.0908  168.4425 C.ar    1  UNL1        0.0460
     24 C         143.2803  142.1383  169.0033 C.ar    1  UNL1        0.0054
     25 C         142.9658  142.7817  170.3213 C.ar    1  UNL1        0.0208
     26 C         141.7357  142.3776  171.0786 C.ar    1  UNL1        0.1013
     27 N         140.8200  141.3302  170.5179 N.ar    1  UNL1       -0.2165
     28 C         141.1344  140.6867  169.1999 C.ar    1  UNL1        0.2222
     29 F         140.2188  139.6393  168.6392 F       1  UNL1       -0.1832
@<TRIPOS>BOND
     1     1     2    1
     2     2     3    1
     3     2     4    1
     4     4     5    1
     5     5     6   ar
     6     6     7   ar
     7     7     8   ar
     8     8    23    1
     9    23    24   ar
    10    24    25   ar
    11    25    26   ar
    12    26    27   ar
    13    27    28   ar
    14    28    29    1
    15     8     9   ar
    16     9    10   ar
    17    10    11    1
    18    11    12    1
    19    12    13    1
    20    13    14    1
    21    14    15    1
    22    14    16    2
    23    11    17    1
    24    17    18    1
    25    18    19    1
    26    19    20    1
    27    17     2    1
    28    10     5   ar
    29    16    11    1
    30    20    17    1
    31    28    23   ar
    32    15    21    1
    33    15    22    1
@<TRIPOS>MOLECULE
*****
 29 33 0 0 0
SMALL
GASTEIGER

@<TRIPOS>ATOM
      1 C         140.7012  142.2095  171.2359 C.3     1  UNL1        0.0438
      2 C         140.8107  142.3783  169.7493 C.3     1  UNL1        0.1398
      3 C         140.0626  143.6304  170.0994 C.3     1  UNL1        0.0438
      4 O         140.6603  142.9820  168.3845 O.3     1  UNL1       -0.4826
      5 C         141.2199  142.2750  167.1858 C.ar    1  UNL1        0.1360
      6 C         141.0695  142.8787  165.8209 C.ar    1  UNL1        0.0366
      7 C         141.6292  142.1717  164.6223 C.ar    1  UNL1        0.0032
      8 C         142.3393  140.8609  164.7884 C.ar    1  UNL1        0.0036
      9 C         142.4897  140.2572  166.1533 C.ar    1  UNL1        0.0008
     10 C         141.9300  140.9643  167.3520 C.ar    1  UNL1        0.0357
     11 C         142.0804  140.3605  168.7169 C.3     1  UNL1        0.1580
     12 C         142.6890  139.5417  167.6171 C.3     1  UNL1        0.2351
     13 O         143.2913  138.3135  168.2326 O.2     1  UNL1       -0.4478
     14 C         143.0550  138.3732  169.7127 C.2     1  UNL1        0.2770
     15 N         143.4906  137.3478  170.7171 N.pl3   1  UNL1       -0.3133
     16 N         142.3066  139.6383  170.0120 N.2     1  UNL1       -0.2202
     17 C         141.5207  141.0675  169.9155 C.3     1  UNL1        0.1141
     18 C         141.4788  141.2360  169.5347 C.3     1  UNL1        0.1501
     19 O         141.5229  141.0589  169.9350 O.3     1  UNL1       -0.3532
     20 C         141.4788  141.2360  169.5347 C.3     1  UNL1        0.1501
     21 H         143.9794  136.5459  170.4216 H       1  UNL1        0.1466
     22 H         143.2876  137.4767  171.6718 H       1  UNL1        0.1466
     23 C         142.8990  140.1539  163.5898 C.ar    1  UNL1        0.0460
     24 C         142.4707  138.7502  163.2792 C.ar    1  UNL1        0.0054
     25 C         143.0304  138.0432  162.0805 C.ar    1  UNL1        0.0208
     26 C         144.0183  138.7398  161.1924 C.ar    1  UNL1        0.1013
     27 N         144.4466  140.1433  161.5029 N.ar    1  UNL1       -0.2165
     28 C         143.8869  140.8504  162.7016 C.ar    1  UNL1        0.2222
     29 F         144.3152  142.2540  163.0122 F       1  UNL1       -0.1832
@<TRIPOS>BOND
     1     1     2    1
     2     2     3    1
     3     2     4    1
     4     4     5    1
     5     5     6   ar
     6     6     7   ar
     7     7     8   ar
     8     8    23    1
     9    23    24   ar
    10    24    25   ar
    11    25    26   ar
    12    26    27   ar
    13    27    28   ar
    14    28    29    1
    15     8     9   ar
    16     9    10   ar
    17    10    11    1
    18    11    12    1
    19    12    13    1
    20    13    14    1
    21    14    15    1
    22    14    16    2
    23    11    17    1
    24    17    18    1
    25    18    19    1
    26    19    20    1
    27    17     2    1
    28    10     5   ar
    29    16    11    1
    30    20    17    1
    31    28    23   ar
    32    15    21    1
    33    15    22    1
@<TRIPOS>MOLECULE
*****
 29 33 0 0 0
SMALL
GASTEIGER

@<TRIPOS>ATOM
      1 C         140.9543  139.8409  170.2975 C.3     1  UNL1        0.0438
      2 C         140.7206  140.7576  169.1333 C.3     1  UNL1        0.1398
      3 C         139.7564  141.3418  170.1227 C.3     1  UNL1        0.0438
      4 O         140.1520  141.8772  168.3129 O.3     1  UNL1       -0.4826
      5 C         140.6288  142.0941  166.9073 C.ar    1  UNL1        0.1360
      6 C         140.0602  143.2137  166.0868 C.ar    1  UNL1        0.0366
      7 C         140.5369  143.4306  164.6813 C.ar    1  UNL1        0.0032
      8 C         141.5823  142.5279  164.0962 C.ar    1  UNL1        0.0036
      9 C         142.1509  141.4083  164.9166 C.ar    1  UNL1        0.0008
     10 C         141.6741  141.1914  166.3223 C.ar    1  UNL1        0.0357
     11 C         142.2427  140.0718  167.1427 C.3     1  UNL1        0.1580
     12 C         142.8143  140.1655  165.7590 C.3     1  UNL1        0.2351
     13 O         143.8250  139.0685  165.5997 O.2     1  UNL1       -0.4478
     14 C         143.8780  138.2968  166.8849 C.2     1  UNL1        0.2770
     15 N         144.7549  137.1130  167.1670 N.pl3   1  UNL1       -0.3133
     16 N         142.9001  138.9169  167.8386 N.2     1  UNL1       -0.2202
     17 C         141.7660  139.8549  168.5483 C.3     1  UNL1        0.1141
     18 C         141.6073  140.1673  168.3194 C.3     1  UNL1        0.1501
     19 O         141.7741  139.8389  168.5600 O.3     1  UNL1       -0.3532
     20 C         141.6073  140.1673  168.3194 C.3     1  UNL1        0.1501
     21 H         145.3675  136.7778  166.4731 H       1  UNL1        0.1466
     22 H         144.7177  136.6713  168.0460 H       1  UNL1        0.1466
     23 C         142.0591  142.7448  162.6906 C.ar    1  UNL1        0.0460
     24 C         141.1592  142.4211  161.5350 C.ar    1  UNL1        0.0054
     25 C         141.6359  142.6380  160.1294 C.ar    1  UNL1        0.0208
     26 C         143.0126  143.1787  159.8794 C.ar    1  UNL1        0.1013
     27 N         143.9124  143.5025  161.0350 N.ar    1  UNL1       -0.2165
     28 C         143.4357  143.2855  162.4406 C.ar    1  UNL1        0.2222
     29 F         144.3356  143.6093  163.5961 F       1  UNL1       -0.1832
@<TRIPOS>BOND
     1     1     2    1
     2     2     3    1
     3     2     4    1
     4     4     5    1
     5     5     6   ar
     6     6     7   ar
     7     7     8   ar
     8     8    23    1
     9    23    24   ar
    10    24    25   ar
    11    25    26   ar
    12    26    27   ar
    13    27    28   ar
    14    28    29    1
    15     8     9   ar
    16     9    10   ar
    17    10    11    1
    18    11    12    1
    19    12    13    1
    20    13    14    1
    21    14    15    1
    22    14    16    2
    23    11    17    1
    24    17    18    1
    25    18    19    1
    26    19    20    1
    27    17     2    1
    28    10     5   ar
    29    16    11    1
    30    20    17    1
    31    28    23   ar
    32    15    21    1
    33    15    22    1
@<TRIPOS>MOLECULE
*****
 29 33 0 0 0
SMALL
GASTEIGER

@<TRIPOS>ATOM
      1 C         142.4672  139.2151  160.6264 C.3     1  UNL1        0.0438
      2 C         142.5996  139.2052  162.1205 C.3     1  UNL1        0.1398
      3 C         143.6076  138.1536  161.7627 C.3     1  UNL1        0.0438
      4 O         143.0821  138.8301  163.4904 O.3     1  UNL1       -0.4826
      5 C         142.5106  139.5100  164.6991 C.ar    1  UNL1        0.1360
      6 C         142.9930  139.1349  166.0690 C.ar    1  UNL1        0.0366
      7 C         142.4215  139.8147  167.2777 C.ar    1  UNL1        0.0032
      8 C         141.3675  140.8698  167.1166 C.ar    1  UNL1        0.0036
      9 C         140.8850  141.2449  165.7468 C.ar    1  UNL1        0.0008
     10 C         141.4566  140.5650  164.5380 C.ar    1  UNL1        0.0357
     11 C         140.9741  140.9401  163.1682 C.3     1  UNL1        0.1580
     12 C         140.3129  141.7026  164.2779 C.3     1  UNL1        0.2351
     13 O         139.3263  142.6516  163.6646 O.2     1  UNL1       -0.4478
     14 C         139.3777  142.4757  162.1758 C.2     1  UNL1        0.2770
     15 N         138.5552  143.2257  161.1704 N.pl3   1  UNL1       -0.3133
     16 N         140.3961  141.4178  161.8690 N.2     1  UNL1       -0.2202
     17 C         141.5456  140.2602  161.9594 C.3     1  UNL1        0.1141
     18 C         141.6802  140.1555  162.3416 C.3     1  UNL1        0.1501
     19 O         141.5387  140.2655  161.9399 O.3     1  UNL1       -0.3532
     20 C         141.6802  140.1555  162.3416 C.3     1  UNL1        0.1501
     21 H         137.9095  143.9053  161.4713 H       1  UNL1        0.1466
     22 H         138.6611  143.0385  160.2097 H       1  UNL1        0.1466
     23 C         140.7959  141.5497  168.3254 C.ar    1  UNL1        0.0460
     24 C         141.2885  142.9092  168.7243 C.ar    1  UNL1        0.0054
     25 C         140.7170  143.5891  169.9330 C.ar    1  UNL1        0.0208
     26 C         139.6529  142.9095  170.7429 C.ar    1  UNL1        0.1013
     27 N         139.1603  141.5501  170.3440 N.ar    1  UNL1       -0.2165
     28 C         139.7318  140.8701  169.1352 C.ar    1  UNL1        0.2222
     29 F         139.2392  139.5107  168.7363 F       1  UNL1       -0.1832
@<TRIPOS>BOND
     1     1     2    1
     2     2     3    1
     3     2     4    1
     4     4     5    1
     5     5     6   ar
     6     6     7   ar
     7     7     8   ar
     8     8    23    1
     9    23    24   ar
    10    24    25   ar
    11    25    26   ar
    12    26    27   ar
    13    27    28   ar
    14    28    29    1
    15     8     9   ar
    16     9    10   ar
    17    10    11    1
    18    11    12    1
    19    12    13    1
    20    13    14    1
    21    14    15    1
    22    14    16    2
    23    11    17    1
    24    17    18    1
    25    18    19    1
    26    19    20    1
    27    17     2    1
    28    10     5   ar
    29    16    11    1
    30    20    17    1
    31    28    23   ar
    32    15    21    1
    33    15    22    1
