@<TRIPOS>MOLECULE
*****
 32 36 0 0 0
SMALL
GASTEIGER

@<TRIPOS>ATOM
      1 O         142.8479  140.1347  156.9892 O.2     1  UNL1       -0.2647
      2 C         142.8905  138.9191  157.8670 C.2     1  UNL1        0.3045
      3 N         143.2650  139.0513  159.3135 N.am    1  UNL1       -0.2720
      4 C         143.3076  137.8357  160.1913 C.3     1  UNL1        0.0976
      5 C         143.6820  137.9678  161.6377 C.3     1  UNL1        0.0651
      6 C         144.0138  139.3156  162.2064 C.3     1  UNL1        0.1693
      7 C         143.9712  140.5313  161.3287 C.3     1  UNL1        0.0651
      8 C         143.5968  140.3991  159.8822 C.3     1  UNL1        0.0976
      9 C         142.5587  137.5714  157.2983 C.ar    1  UNL1        0.3042
     10 N         141.4200  137.2611  156.3724 N.ar    1  UNL1       -0.1021
     11 N         141.4649  135.7952  156.0576 N.ar    1  UNL1       -0.1068
     12 C         142.6312  135.1995  156.7888 C.ar    1  UNL1        0.2501
     13 O         143.3073  136.2972  157.5556 O.2     1  UNL1       -0.4122
     14 C         143.0484  133.7589  156.7585 C.ar    1  UNL1        0.0551
     15 C         142.2575  132.7657  155.9599 C.ar    1  UNL1        0.0047
     16 C         142.6747  131.3252  155.9296 C.ar    1  UNL1        0.0002
     17 C         143.8828  130.8780  156.6980 C.ar    1  UNL1        0.0000
     18 C         144.6737  131.8712  157.4966 C.ar    1  UNL1        0.0002
     19 C         144.2565  133.3117  157.5269 C.ar    1  UNL1        0.0047
     20 O         144.3882  139.4478  163.6529 O.3     1  UNL1       -0.4791
     21 C         143.3196  139.6169  164.6919 C.ar    1  UNL1        0.1384
     22 C         142.0337  140.3044  164.3401 C.ar    1  UNL1        0.0366
     23 C         140.9651  140.4736  165.3790 C.ar    1  UNL1        0.0002
     24 C         141.1823  139.9551  166.7697 C.ar    1  UNL1       -0.0059
     25 C         142.4682  139.2676  167.1215 C.ar    1  UNL1        0.0002
     26 C         143.5368  139.0985  166.0826 C.ar    1  UNL1        0.0366
     27 C         140.1135  140.1243  167.8086 C.3     1  UNL1        0.0991
     28 N         140.1139  141.3344  168.6950 N.3     1  UNL1       -0.2690
     29 C         139.5480  141.4115  170.0819 C.3     1  UNL1        0.0724
     30 C         139.7646  142.8045  170.5942 C.3     1  UNL1        0.0188
     31 C         140.4645  143.5884  169.5238 C.3     1  UNL1        0.0188
     32 C         140.6804  142.6798  168.3500 C.3     1  UNL1        0.0724
@<TRIPOS>BOND
     1     1     2    2
     2     2     9    1
     3     9    10   ar
     4    10    11   ar
     5    11    12   ar
     6    12    14    1
     7    14    15   ar
     8    15    16   ar
     9    16    17   ar
    10    17    18   ar
    11    18    19   ar
    12    12    13   ar
    13     2     3   am
    14     3     4    1
    15     4     5    1
    16     5     6    1
    17     6    20    1
    18    20    21    1
    19    21    22   ar
    20    22    23   ar
    21    23    24   ar
    22    24    27    1
    23    27    28    1
    24    28    29    1
    25    29    30    1
    26    30    31    1
    27    31    32    1
    28    24    25   ar
    29    25    26   ar
    30     6     7    1
    31     7     8    1
    32    13     9   ar
    33     8     3    1
    34    19    14   ar
    35    26    21   ar
    36    32    28    1
@<TRIPOS>MOLECULE
*****
 32 36 0 0 0
SMALL
GASTEIGER

@<TRIPOS>ATOM
      1 O         137.3511  139.4652  160.7895 O.2     1  UNL1       -0.2647
      2 C         138.6861  139.0416  161.3264 C.2     1  UNL1        0.3045
      3 N         139.8035  138.7103  160.3821 N.am    1  UNL1       -0.2720
      4 C         141.1386  138.2868  160.9191 C.3     1  UNL1        0.0976
      5 C         142.2559  137.9555  159.9748 C.3     1  UNL1        0.0651
      6 C         142.0383  138.0477  158.4936 C.3     1  UNL1        0.1693
      7 C         140.7033  138.4712  157.9565 C.3     1  UNL1        0.0651
      8 C         139.5859  138.8025  158.9008 C.3     1  UNL1        0.0976
      9 C         138.9038  138.9494  162.8076 C.ar    1  UNL1        0.3042
     10 N         138.8483  137.6965  163.6307 N.ar    1  UNL1       -0.1021
     11 N         139.1253  138.0667  165.0576 N.ar    1  UNL1       -0.1068
     12 C         139.3520  139.5482  165.1166 C.ar    1  UNL1        0.2501
     13 O         139.2151  140.0938  163.7260 O.2     1  UNL1       -0.4122
     14 C         139.6614  140.3445  166.3496 C.ar    1  UNL1        0.0551
     15 C         140.2993  141.6967  166.2287 C.ar    1  UNL1        0.0047
     16 C         140.6086  142.4929  167.4617 C.ar    1  UNL1        0.0002
     17 C         140.2800  141.9370  168.8156 C.ar    1  UNL1        0.0000
     18 C         139.6422  140.5848  168.9365 C.ar    1  UNL1        0.0002
     19 C         139.3329  139.7885  167.7035 C.ar    1  UNL1        0.0047
     20 O         143.1557  137.7164  157.5493 O.3     1  UNL1       -0.4791
     21 C         143.1295  136.4300  156.7783 C.ar    1  UNL1        0.1384
     22 C         142.9491  136.4515  155.2894 C.ar    1  UNL1        0.0366
     23 C         142.9230  135.1650  154.5184 C.ar    1  UNL1        0.0002
     24 C         143.0773  133.8571  155.2364 C.ar    1  UNL1       -0.0059
     25 C         143.2577  133.8356  156.7254 C.ar    1  UNL1        0.0002
     26 C         143.2838  135.1220  157.4963 C.ar    1  UNL1        0.0366
     27 C         143.0512  132.5707  154.4654 C.3     1  UNL1        0.0991
     28 N         143.3324  131.2726  155.1623 N.3     1  UNL1       -0.2690
     29 C         144.6861  130.6651  155.3822 C.3     1  UNL1        0.0724
     30 C         144.4996  129.3711  156.1175 C.3     1  UNL1        0.0188
     31 C         143.0306  129.1788  156.3521 C.3     1  UNL1        0.0188
     32 C         142.3092  130.3540  155.7617 C.3     1  UNL1        0.0724
@<TRIPOS>BOND
     1     1     2    2
     2     2     9    1
     3     9    10   ar
     4    10    11   ar
     5    11    12   ar
     6    12    14    1
     7    14    15   ar
     8    15    16   ar
     9    16    17   ar
    10    17    18   ar
    11    18    19   ar
    12    12    13   ar
    13     2     3   am
    14     3     4    1
    15     4     5    1
    16     5     6    1
    17     6    20    1
    18    20    21    1
    19    21    22   ar
    20    22    23   ar
    21    23    24   ar
    22    24    27    1
    23    27    28    1
    24    28    29    1
    25    29    30    1
    26    30    31    1
    27    31    32    1
    28    24    25   ar
    29    25    26   ar
    30     6     7    1
    31     7     8    1
    32    13     9   ar
    33     8     3    1
    34    19    14   ar
    35    26    21   ar
    36    32    28    1
@<TRIPOS>MOLECULE
*****
 32 36 0 0 0
SMALL
GASTEIGER

@<TRIPOS>ATOM
      1 O         144.0934  139.2369  159.1383 O.2     1  UNL1       -0.2647
      2 C         142.7134  138.6572  159.0407 C.2     1  UNL1        0.3045
      3 N         141.6676  139.0365  160.0470 N.am    1  UNL1       -0.2720
      4 C         140.2876  138.4568  159.9493 C.3     1  UNL1        0.0976
      5 C         139.2419  138.8361  160.9555 C.3     1  UNL1        0.0651
      6 C         139.5762  139.7950  162.0594 C.3     1  UNL1        0.1693
      7 C         140.9562  140.3747  162.1572 C.3     1  UNL1        0.0651
      8 C         142.0019  139.9954  161.1509 C.3     1  UNL1        0.0976
      9 C         142.3791  137.6983  157.9367 C.ar    1  UNL1        0.3042
     10 N         141.4857  137.9794  156.7650 N.ar    1  UNL1       -0.1021
     11 N         141.4340  136.7448  155.9148 N.ar    1  UNL1       -0.1068
     12 C         142.2953  135.7005  156.5610 C.ar    1  UNL1        0.2501
     13 O         142.8794  136.2899  157.8106 O.2     1  UNL1       -0.4122
     14 C         142.5312  134.3109  156.0478 C.ar    1  UNL1        0.0551
     15 C         143.8672  133.6568  156.2407 C.ar    1  UNL1        0.0047
     16 C         144.1030  132.2673  155.7275 C.ar    1  UNL1        0.0002
     17 C         143.0029  131.5318  155.0213 C.ar    1  UNL1        0.0000
     18 C         141.6669  132.1858  154.8284 C.ar    1  UNL1        0.0002
     19 C         141.4310  133.5754  155.3416 C.ar    1  UNL1        0.0047
     20 O         138.5305  140.1743  163.0657 O.3     1  UNL1       -0.4791
     21 C         138.8856  140.2597  164.5206 C.ar    1  UNL1        0.1384
     22 C         139.5949  141.4709  165.0495 C.ar    1  UNL1        0.0366
     23 C         139.9501  141.5563  166.5044 C.ar    1  UNL1        0.0002
     24 C         139.5958  140.4305  167.4303 C.ar    1  UNL1       -0.0059
     25 C         138.8865  139.2194  166.9013 C.ar    1  UNL1        0.0002
     26 C         138.5313  139.1339  165.4465 C.ar    1  UNL1        0.0366
     27 C         139.9510  140.5161  168.8851 C.3     1  UNL1        0.0991
     28 N         141.1470  141.3101  169.3198 N.3     1  UNL1       -0.2690
     29 C         142.5823  140.9347  169.0987 C.3     1  UNL1        0.0724
     30 C         143.4401  142.0115  169.6941 C.3     1  UNL1        0.0188
     31 C         142.5349  143.0525  170.2833 C.3     1  UNL1        0.0188
     32 C         141.1177  142.6189  170.0519 C.3     1  UNL1        0.0724
@<TRIPOS>BOND
     1     1     2    2
     2     2     9    1
     3     9    10   ar
     4    10    11   ar
     5    11    12   ar
     6    12    14    1
     7    14    15   ar
     8    15    16   ar
     9    16    17   ar
    10    17    18   ar
    11    18    19   ar
    12    12    13   ar
    13     2     3   am
    14     3     4    1
    15     4     5    1
    16     5     6    1
    17     6    20    1
    18    20    21    1
    19    21    22   ar
    20    22    23   ar
    21    23    24   ar
    22    24    27    1
    23    27    28    1
    24    28    29    1
    25    29    30    1
    26    30    31    1
    27    31    32    1
    28    24    25   ar
    29    25    26   ar
    30     6     7    1
    31     7     8    1
    32    13     9   ar
    33     8     3    1
    34    19    14   ar
    35    26    21   ar
    36    32    28    1
@<TRIPOS>MOLECULE
*****
 32 36 0 0 0
SMALL
GASTEIGER

@<TRIPOS>ATOM
      1 O         142.9009  143.6709  159.1840 O.2     1  UNL1       -0.2647
      2 C         141.4034  143.7341  159.1232 C.2     1  UNL1        0.3045
      3 N         140.5807  143.0566  160.1788 N.am    1  UNL1       -0.2720
      4 C         139.0832  143.1198  160.1180 C.3     1  UNL1        0.0976
      5 C         138.2605  142.4423  161.1734 C.3     1  UNL1        0.0651
      6 C         138.9352  141.7016  162.2897 C.3     1  UNL1        0.1693
      7 C         140.4327  141.6384  162.3506 C.3     1  UNL1        0.0651
      8 C         141.2554  142.3159  161.2951 C.3     1  UNL1        0.0976
      9 C         140.7287  144.4748  158.0070 C.ar    1  UNL1        0.3042
     10 N         140.0913  143.8573  156.7976 N.ar    1  UNL1       -0.1021
     11 N         139.5416  144.9639  155.9473 N.ar    1  UNL1       -0.1068
     12 C         139.8392  146.2654  156.6310 C.ar    1  UNL1        0.2501
     13 O         140.5729  145.9631  157.9040 O.2     1  UNL1       -0.4122
     14 C         139.4683  147.6297  156.1298 C.ar    1  UNL1        0.0551
     15 C         138.6471  148.5462  156.9875 C.ar    1  UNL1        0.0047
     16 C         138.2762  149.9104  156.4863 C.ar    1  UNL1        0.0002
     17 C         138.7265  150.3582  155.1274 C.ar    1  UNL1        0.0000
     18 C         139.5476  149.4417  154.2696 C.ar    1  UNL1        0.0002
     19 C         139.9185  148.0775  154.7708 C.ar    1  UNL1        0.0047
     20 O         138.1125  141.0241  163.3453 O.3     1  UNL1       -0.4791
     21 C         138.6537  140.8732  164.7361 C.ar    1  UNL1        0.1384
     22 C         138.4073  139.6082  165.5035 C.ar    1  UNL1        0.0366
     23 C         138.9485  139.4573  166.8943 C.ar    1  UNL1        0.0002
     24 C         139.7361  140.5714  167.5177 C.ar    1  UNL1       -0.0059
     25 C         139.9824  141.8364  166.7502 C.ar    1  UNL1        0.0002
     26 C         139.4413  141.9873  165.3594 C.ar    1  UNL1        0.0366
     27 C         140.2772  140.4204  168.9085 C.3     1  UNL1        0.0991
     28 N         141.3972  141.3011  169.3773 N.3     1  UNL1       -0.2690
     29 C         141.2540  142.5457  170.2022 C.3     1  UNL1        0.0724
     30 C         142.6253  143.1056  170.4383 C.3     1  UNL1        0.0188
     31 C         143.6161  142.2071  169.7593 C.3     1  UNL1        0.0188
     32 C         142.8570  141.0918  169.1036 C.3     1  UNL1        0.0724
@<TRIPOS>BOND
     1     1     2    2
     2     2     9    1
     3     9    10   ar
     4    10    11   ar
     5    11    12   ar
     6    12    14    1
     7    14    15   ar
     8    15    16   ar
     9    16    17   ar
    10    17    18   ar
    11    18    19   ar
    12    12    13   ar
    13     2     3   am
    14     3     4    1
    15     4     5    1
    16     5     6    1
    17     6    20    1
    18    20    21    1
    19    21    22   ar
    20    22    23   ar
    21    23    24   ar
    22    24    27    1
    23    27    28    1
    24    28    29    1
    25    29    30    1
    26    30    31    1
    27    31    32    1
    28    24    25   ar
    29    25    26   ar
    30     6     7    1
    31     7     8    1
    32    13     9   ar
    33     8     3    1
    34    19    14   ar
    35    26    21   ar
    36    32    28    1
@<TRIPOS>MOLECULE
*****
 32 36 0 0 0
SMALL
GASTEIGER

@<TRIPOS>ATOM
      1 O         140.3563  140.1360  156.4428 O.2     1  UNL1       -0.2647
      2 C         140.5418  139.1186  157.5293 C.2     1  UNL1        0.3045
      3 N         139.8309  139.2828  158.8399 N.am    1  UNL1       -0.2720
      4 C         140.0164  138.2652  159.9264 C.3     1  UNL1        0.0976
      5 C         139.3055  138.4294  161.2369 C.3     1  UNL1        0.0651
      6 C         138.4092  139.6110  161.4611 C.3     1  UNL1        0.1693
      7 C         138.2236  140.6285  160.3747 C.3     1  UNL1        0.0651
      8 C         138.9345  140.4644  159.0641 C.3     1  UNL1        0.0976
      9 C         141.4381  137.9370  157.3051 C.ar    1  UNL1        0.3042
     10 N         142.8267  137.7682  157.8471 N.ar    1  UNL1       -0.1021
     11 N         143.3501  136.4436  157.3765 N.ar    1  UNL1       -0.1068
     12 C         142.2851  135.7937  156.5438 C.ar    1  UNL1        0.2501
     13 O         141.1035  136.7167  156.4997 O.2     1  UNL1       -0.4122
     14 C         142.3843  134.4557  155.8729 C.ar    1  UNL1        0.0551
     15 C         142.7837  133.2468  156.6660 C.ar    1  UNL1        0.0047
     16 C         142.8828  131.9089  155.9952 C.ar    1  UNL1        0.0002
     17 C         142.5827  131.7799  154.5312 C.ar    1  UNL1        0.0000
     18 C         142.1833  132.9887  153.7381 C.ar    1  UNL1        0.0002
     19 C         142.0841  134.3267  154.4089 C.ar    1  UNL1        0.0047
     20 O         137.6983  139.7751  162.7717 O.3     1  UNL1       -0.4791
     21 C         138.4867  139.9304  164.0383 C.ar    1  UNL1        0.1384
     22 C         138.1041  139.1492  165.2604 C.ar    1  UNL1        0.0366
     23 C         138.8925  139.3044  166.5270 C.ar    1  UNL1        0.0002
     24 C         140.0635  140.2408  166.5715 C.ar    1  UNL1       -0.0059
     25 C         140.4461  141.0219  165.3495 C.ar    1  UNL1        0.0002
     26 C         139.6577  140.8667  164.0829 C.ar    1  UNL1        0.0366
     27 C         140.8518  140.3959  167.8382 C.3     1  UNL1        0.0991
     28 N         140.5571  141.5333  168.7706 N.3     1  UNL1       -0.2690
     29 C         139.7458  141.4536  170.0297 C.3     1  UNL1        0.0724
     30 C         139.7092  142.8212  170.6449 C.3     1  UNL1        0.0188
     31 C         140.4978  143.7461  169.7659 C.3     1  UNL1        0.0188
     32 C         141.0219  142.9501  168.6075 C.3     1  UNL1        0.0724
@<TRIPOS>BOND
     1     1     2    2
     2     2     9    1
     3     9    10   ar
     4    10    11   ar
     5    11    12   ar
     6    12    14    1
     7    14    15   ar
     8    15    16   ar
     9    16    17   ar
    10    17    18   ar
    11    18    19   ar
    12    12    13   ar
    13     2     3   am
    14     3     4    1
    15     4     5    1
    16     5     6    1
    17     6    20    1
    18    20    21    1
    19    21    22   ar
    20    22    23   ar
    21    23    24   ar
    22    24    27    1
    23    27    28    1
    24    28    29    1
    25    29    30    1
    26    30    31    1
    27    31    32    1
    28    24    25   ar
    29    25    26   ar
    30     6     7    1
    31     7     8    1
    32    13     9   ar
    33     8     3    1
    34    19    14   ar
    35    26    21   ar
    36    32    28    1
@<TRIPOS>MOLECULE
*****
 32 36 0 0 0
SMALL
GASTEIGER

@<TRIPOS>ATOM
      1 O         137.4544  139.6789  160.6042 O.2     1  UNL1       -0.2647
      2 C         138.7599  139.1780  161.1472 C.2     1  UNL1        0.3045
      3 N         139.8690  138.8049  160.2087 N.am    1  UNL1       -0.2720
      4 C         141.1745  138.3040  160.7519 C.3     1  UNL1        0.0976
      5 C         142.2834  137.9309  159.8134 C.3     1  UNL1        0.0651
      6 C         142.0871  138.0587  158.3318 C.3     1  UNL1        0.1693
      7 C         140.7816  138.5595  157.7886 C.3     1  UNL1        0.0651
      8 C         139.6726  138.9326  158.7272 C.3     1  UNL1        0.0976
      9 C         138.9563  139.0503  162.6288 C.ar    1  UNL1        0.3042
     10 N         138.8909  137.7778  163.4205 N.ar    1  UNL1       -0.1021
     11 N         139.1467  138.1137  164.8598 N.ar    1  UNL1       -0.1068
     12 C         139.3703  139.5937  164.9578 C.ar    1  UNL1        0.2501
     13 O         139.2526  140.1725  163.5789 O.2     1  UNL1       -0.4122
     14 C         139.6606  140.3604  166.2140 C.ar    1  UNL1        0.0551
     15 C         139.3424  139.7583  167.5505 C.ar    1  UNL1        0.0047
     16 C         139.6327  140.5250  168.8066 C.ar    1  UNL1        0.0002
     17 C         140.2412  141.8936  168.7263 C.ar    1  UNL1        0.0000
     18 C         140.5594  142.4956  167.3898 C.ar    1  UNL1        0.0002
     19 C         140.2691  141.7290  166.1337 C.ar    1  UNL1        0.0047
     20 O         143.1961  137.6855  157.3933 O.3     1  UNL1       -0.4791
     21 C         143.1668  136.3633  156.6856 C.ar    1  UNL1        0.1384
     22 C         143.3425  135.0926  157.4630 C.ar    1  UNL1        0.0366
     23 C         143.3131  133.7703  156.7553 C.ar    1  UNL1        0.0002
     24 C         143.1082  133.7189  155.2702 C.ar    1  UNL1       -0.0059
     25 C         142.9326  134.9896  154.4929 C.ar    1  UNL1        0.0002
     26 C         142.9619  136.3118  155.2006 C.ar    1  UNL1        0.0366
     27 C         143.0789  132.3966  154.5626 C.3     1  UNL1        0.0991
     28 N         141.7749  131.8309  154.0835 N.3     1  UNL1       -0.2690
     29 C         141.1212  132.1175  152.7642 C.3     1  UNL1        0.0724
     30 C         139.8379  131.3432  152.7049 C.3     1  UNL1        0.0188
     31 C         139.6986  130.5780  153.9875 C.3     1  UNL1        0.0188
     32 C         140.8957  130.8795  154.8395 C.3     1  UNL1        0.0724
@<TRIPOS>BOND
     1     1     2    2
     2     2     9    1
     3     9    10   ar
     4    10    11   ar
     5    11    12   ar
     6    12    14    1
     7    14    15   ar
     8    15    16   ar
     9    16    17   ar
    10    17    18   ar
    11    18    19   ar
    12    12    13   ar
    13     2     3   am
    14     3     4    1
    15     4     5    1
    16     5     6    1
    17     6    20    1
    18    20    21    1
    19    21    22   ar
    20    22    23   ar
    21    23    24   ar
    22    24    27    1
    23    27    28    1
    24    28    29    1
    25    29    30    1
    26    30    31    1
    27    31    32    1
    28    24    25   ar
    29    25    26   ar
    30     6     7    1
    31     7     8    1
    32    13     9   ar
    33     8     3    1
    34    19    14   ar
    35    26    21   ar
    36    32    28    1
@<TRIPOS>MOLECULE
*****
 32 36 0 0 0
SMALL
GASTEIGER

@<TRIPOS>ATOM
      1 O         141.1074  137.1152  162.4666 O.2     1  UNL1       -0.2647
      2 C         140.0554  138.1561  162.7111 C.2     1  UNL1        0.3045
      3 N         139.4342  138.8809  161.5540 N.am    1  UNL1       -0.2720
      4 C         138.3821  139.9218  161.7986 C.3     1  UNL1        0.0976
      5 C         137.7610  140.6465  160.6415 C.3     1  UNL1        0.0651
      6 C         138.1918  140.3304  159.2400 C.3     1  UNL1        0.1693
      7 C         139.2438  139.2895  158.9953 C.3     1  UNL1        0.0651
      8 C         139.8650  138.5647  160.1524 C.3     1  UNL1        0.0976
      9 C         139.6246  138.4722  164.1127 C.ar    1  UNL1        0.3042
     10 N         138.5803  137.7384  164.9009 N.ar    1  UNL1       -0.1021
     11 N         138.4727  138.3903  166.2475 N.ar    1  UNL1       -0.1068
     12 C         139.4504  139.5270  166.2916 C.ar    1  UNL1        0.2501
     13 O         140.1623  139.5776  164.9722 O.2     1  UNL1       -0.4122
     14 C         139.6766  140.4510  167.4515 C.ar    1  UNL1        0.0551
     15 C         140.3627  141.7678  167.2387 C.ar    1  UNL1        0.0047
     16 C         140.5888  142.6916  168.3986 C.ar    1  UNL1        0.0002
     17 C         140.1289  142.2987  169.7712 C.ar    1  UNL1        0.0000
     18 C         139.4428  140.9819  169.9840 C.ar    1  UNL1        0.0002
     19 C         139.2167  140.0580  168.8241 C.ar    1  UNL1        0.0047
     20 O         137.5706  141.0552  158.0829 O.3     1  UNL1       -0.4791
     21 C         138.3399  142.1267  157.3687 C.ar    1  UNL1        0.1384
     22 C         138.0896  142.3858  155.9127 C.ar    1  UNL1        0.0366
     23 C         138.8589  143.4573  155.1985 C.ar    1  UNL1        0.0002
     24 C         139.8786  144.2697  155.9404 C.ar    1  UNL1       -0.0059
     25 C         140.1289  144.0105  157.3964 C.ar    1  UNL1        0.0002
     26 C         139.3596  142.9390  158.1106 C.ar    1  UNL1        0.0366
     27 C         140.6478  145.3411  155.2261 C.3     1  UNL1        0.0991
     28 N         140.0832  146.7268  155.1214 N.3     1  UNL1       -0.2690
     29 C         139.1548  147.3771  156.1039 C.3     1  UNL1        0.0724
     30 C         138.8456  148.7577  155.6056 C.3     1  UNL1        0.0188
     31 C         139.5829  148.9606  154.3151 C.3     1  UNL1        0.0188
     32 C         140.3477  147.7055  154.0159 C.3     1  UNL1        0.0724
@<TRIPOS>BOND
     1     1     2    2
     2     2     9    1
     3     9    10   ar
     4    10    11   ar
     5    11    12   ar
     6    12    14    1
     7    14    15   ar
     8    15    16   ar
     9    16    17   ar
    10    17    18   ar
    11    18    19   ar
    12    12    13   ar
    13     2     3   am
    14     3     4    1
    15     4     5    1
    16     5     6    1
    17     6    20    1
    18    20    21    1
    19    21    22   ar
    20    22    23   ar
    21    23    24   ar
    22    24    27    1
    23    27    28    1
    24    28    29    1
    25    29    30    1
    26    30    31    1
    27    31    32    1
    28    24    25   ar
    29    25    26   ar
    30     6     7    1
    31     7     8    1
    32    13     9   ar
    33     8     3    1
    34    19    14   ar
    35    26    21   ar
    36    32    28    1
@<TRIPOS>MOLECULE
*****
 32 36 0 0 0
SMALL
GASTEIGER

@<TRIPOS>ATOM
      1 O         140.5960  139.8327  157.2359 O.2     1  UNL1       -0.2647
      2 C         141.8418  139.2865  157.8680 C.2     1  UNL1        0.3045
      3 N         142.3851  139.9127  159.1181 N.am    1  UNL1       -0.2720
      4 C         143.6310  139.3663  159.7502 C.3     1  UNL1        0.0976
      5 C         144.1743  139.9925  161.0002 C.3     1  UNL1        0.0651
      6 C         143.4718  141.1648  161.6182 C.3     1  UNL1        0.1693
      7 C         142.2259  141.7112  160.9862 C.3     1  UNL1        0.0651
      8 C         141.6826  141.0850  159.7361 C.3     1  UNL1        0.0976
      9 C         142.5443  138.1141  157.2500 C.ar    1  UNL1        0.3042
     10 N         143.6839  138.1818  156.2769 N.ar    1  UNL1       -0.1021
     11 N         144.0745  136.7777  155.9220 N.ar    1  UNL1       -0.1068
     12 C         143.1763  135.8422  156.6757 C.ar    1  UNL1        0.2501
     13 O         142.2306  136.6682  157.4964 O.2     1  UNL1       -0.4122
     14 C         143.2167  134.3438  156.6188 C.ar    1  UNL1        0.0551
     15 C         142.3307  133.6056  155.6596 C.ar    1  UNL1        0.0047
     16 C         142.3711  132.1072  155.6027 C.ar    1  UNL1        0.0002
     17 C         143.2975  131.3471  156.5050 C.ar    1  UNL1        0.0000
     18 C         144.1835  132.0853  157.4641 C.ar    1  UNL1        0.0002
     19 C         144.1430  133.5837  157.5210 C.ar    1  UNL1        0.0047
     20 O         144.0151  141.7910  162.8684 O.3     1  UNL1       -0.4791
     21 C         143.6640  141.2164  164.2087 C.ar    1  UNL1        0.1384
     22 C         143.7564  139.7369  164.4379 C.ar    1  UNL1        0.0366
     23 C         143.4053  139.1623  165.7783 C.ar    1  UNL1        0.0002
     24 C         142.9618  140.0671  166.8894 C.ar    1  UNL1       -0.0059
     25 C         142.8694  141.5466  166.6602 C.ar    1  UNL1        0.0002
     26 C         143.2205  142.1212  165.3198 C.ar    1  UNL1        0.0366
     27 C         142.6107  139.4924  168.2297 C.3     1  UNL1        0.0991
     28 N         141.2759  139.7886  168.8466 N.3     1  UNL1       -0.2690
     29 C         139.9870  139.9877  168.1057 C.3     1  UNL1        0.0724
     30 C         138.9102  140.2599  169.1139 C.3     1  UNL1        0.0188
     31 C         139.5337  140.2291  170.4778 C.3     1  UNL1        0.0188
     32 C         140.9959  139.9378  170.3126 C.3     1  UNL1        0.0724
@<TRIPOS>BOND
     1     1     2    2
     2     2     9    1
     3     9    10   ar
     4    10    11   ar
     5    11    12   ar
     6    12    14    1
     7    14    15   ar
     8    15    16   ar
     9    16    17   ar
    10    17    18   ar
    11    18    19   ar
    12    12    13   ar
    13     2     3   am
    14     3     4    1
    15     4     5    1
    16     5     6    1
    17     6    20    1
    18    20    21    1
    19    21    22   ar
    20    22    23   ar
    21    23    24   ar
    22    24    27    1
    23    27    28    1
    24    28    29    1
    25    29    30    1
    26    30    31    1
    27    31    32    1
    28    24    25   ar
    29    25    26   ar
    30     6     7    1
    31     7     8    1
    32    13     9   ar
    33     8     3    1
    34    19    14   ar
    35    26    21   ar
    36    32    28    1
@<TRIPOS>MOLECULE
*****
 32 36 0 0 0
SMALL
GASTEIGER

@<TRIPOS>ATOM
      1 O         144.0550  139.9560  157.3543 O.2     1  UNL1       -0.2647
      2 C         142.9619  138.9353  157.4692 C.2     1  UNL1        0.3045
      3 N         141.7680  139.2092  158.3351 N.am    1  UNL1       -0.2720
      4 C         140.6748  138.1884  158.4500 C.3     1  UNL1        0.0976
      5 C         139.4810  138.4623  159.3158 C.3     1  UNL1        0.0651
      6 C         139.3803  139.7569  160.0667 C.3     1  UNL1        0.1693
      7 C         140.4734  140.7777  159.9519 C.3     1  UNL1        0.0651
      8 C         141.6673  140.5038  159.0860 C.3     1  UNL1        0.0976
      9 C         143.0626  137.6408  156.7183 C.ar    1  UNL1        0.3042
     10 N         142.7691  137.4418  155.2607 N.ar    1  UNL1       -0.1021
     11 N         142.9996  135.9959  154.9346 N.ar    1  UNL1       -0.1068
     12 C         143.4355  135.3013  156.1906 C.ar    1  UNL1        0.2501
     13 O         143.4744  136.3179  157.2929 O.2     1  UNL1       -0.4122
     14 C         143.7733  133.8456  156.3213 C.ar    1  UNL1        0.0551
     15 C         143.4773  132.9028  155.1929 C.ar    1  UNL1        0.0047
     16 C         143.8150  131.4472  155.3237 C.ar    1  UNL1        0.0002
     17 C         144.4487  130.9344  156.5829 C.ar    1  UNL1        0.0000
     18 C         144.7447  131.8773  157.7113 C.ar    1  UNL1        0.0002
     19 C         144.4070  133.3329  157.5805 C.ar    1  UNL1        0.0047
     20 O         138.1864  140.0307  160.9326 O.3     1  UNL1       -0.4791
     21 C         138.2831  139.8588  162.4195 C.ar    1  UNL1        0.1384
     22 C         137.9664  141.0084  163.3295 C.ar    1  UNL1        0.0366
     23 C         138.0630  140.8365  164.8165 C.ar    1  UNL1        0.0002
     24 C         138.4763  139.5150  165.3935 C.ar    1  UNL1       -0.0059
     25 C         138.7930  138.3654  164.4835 C.ar    1  UNL1        0.0002
     26 C         138.6964  138.5373  162.9965 C.ar    1  UNL1        0.0366
     27 C         138.5730  139.3432  166.8805 C.3     1  UNL1        0.0991
     28 N         139.8348  139.7199  167.5987 N.3     1  UNL1       -0.2690
     29 C         141.2070  139.7824  166.9962 C.3     1  UNL1        0.0724
     30 C         142.1663  140.2014  168.0706 C.3     1  UNL1        0.0188
     31 C         141.3869  140.3977  169.3370 C.3     1  UNL1        0.0188
     32 C         139.9459  140.1001  169.0454 C.3     1  UNL1        0.0724
@<TRIPOS>BOND
     1     1     2    2
     2     2     9    1
     3     9    10   ar
     4    10    11   ar
     5    11    12   ar
     6    12    14    1
     7    14    15   ar
     8    15    16   ar
     9    16    17   ar
    10    17    18   ar
    11    18    19   ar
    12    12    13   ar
    13     2     3   am
    14     3     4    1
    15     4     5    1
    16     5     6    1
    17     6    20    1
    18    20    21    1
    19    21    22   ar
    20    22    23   ar
    21    23    24   ar
    22    24    27    1
    23    27    28    1
    24    28    29    1
    25    29    30    1
    26    30    31    1
    27    31    32    1
    28    24    25   ar
    29    25    26   ar
    30     6     7    1
    31     7     8    1
    32    13     9   ar
    33     8     3    1
    34    19    14   ar
    35    26    21   ar
    36    32    28    1
