@<TRIPOS>MOLECULE
*****
 26 30 0 0 0
SMALL
GASTEIGER

@<TRIPOS>ATOM
      1 C         141.4808  140.1841  165.9847 C.3     1  UNL1        0.0579
      2 C         142.1909  139.0794  165.2600 C.3     1  UNL1        0.0163
      3 C         142.3903  139.5114  163.8375 C.3     1  UNL1        0.0058
      4 C         141.8034  140.8832  163.6831 C.3     1  UNL1        0.0240
      5 C         141.1545  142.2314  163.7893 C.3     1  UNL1        0.0301
      6 C         140.9759  143.2702  162.7220 C.ar    1  UNL1       -0.0255
      7 C         140.2706  144.4837  163.2508 C.ar    1  UNL1       -0.0046
      8 C         139.9916  145.6443  162.3425 C.ar    1  UNL1       -0.0003
      9 C         140.4179  145.5914  160.9054 C.ar    1  UNL1       -0.0003
     10 C         141.1232  144.3778  160.3765 C.ar    1  UNL1       -0.0042
     11 C         141.4022  143.2172  161.2848 C.ar    1  UNL1       -0.0217
     12 C         142.1124  142.1124  160.5600 C.3     1  UNL1        0.0520
     13 C         142.5716  140.7878  161.0933 C.ar    1  UNL1       -0.0218
     14 C         143.2440  139.9719  160.0294 C.ar    1  UNL1       -0.0042
     15 C         143.7788  138.6089  160.3552 C.ar    1  UNL1       -0.0003
     16 C         143.6414  138.0619  161.7451 C.ar    1  UNL1       -0.0003
     17 C         142.9690  138.8778  162.8092 C.ar    1  UNL1       -0.0046
     18 C         142.4341  140.2408  162.4833 C.ar    1  UNL1       -0.0261
     19 C         141.2413  141.2990  165.0102 C.3     1  UNL1        0.0203
     20 C         140.5143  140.1633  169.4746 C.3     1  UNL1        0.0684
     21 C         141.7925  139.9255  168.7266 C.3     1  UNL1        0.0790
     22 N         141.0804  140.1755  167.4303 N.3     1  UNL1       -0.2732
     23 C         139.8022  140.4132  168.1783 C.3     1  UNL1        0.0790
     24 O         139.1274  139.1410  171.4192 O.co2   1  UNL1       -0.5491
     25 C         140.1138  140.1547  170.9202 C.2     1  UNL1        0.0527
     26 O         140.6999  141.1600  171.8667 O.co2   1  UNL1       -0.5491
@<TRIPOS>UNITY_ATOM_ATTR
24 1
charge -1
@<TRIPOS>BOND
     1    24    25   ar
     2    25    26   ar
     3    25    20    1
     4    20    21    1
     5    21    22    1
     6    22     1    1
     7     1     2    1
     8     2     3    1
     9     4     3    1
    10     4     5    1
    11     5     6    1
    12     6     7   ar
    13     7     8   ar
    14     8     9   ar
    15     9    10   ar
    16    10    11   ar
    17    11    12    1
    18    12    13    1
    19    13    14   ar
    20    14    15   ar
    21    15    16   ar
    22    16    17   ar
    23    17    18   ar
    24     4    19    1
    25    22    23    1
    26    23    20    1
    27    19     1    1
    28    18     4    1
    29    11     6   ar
    30    18    13   ar
@<TRIPOS>MOLECULE
*****
 26 30 0 0 0
SMALL
GASTEIGER

@<TRIPOS>ATOM
      1 C         140.5775  142.2466  166.1004 C.3     1  UNL1        0.0579
      2 C         140.0509  143.5432  165.5607 C.3     1  UNL1        0.0163
      3 C         140.4178  143.6240  164.1086 C.3     1  UNL1        0.0058
      4 C         141.1712  142.3772  163.7508 C.3     1  UNL1        0.0240
      5 C         141.8873  141.0631  163.6505 C.3     1  UNL1        0.0301
      6 C         142.5474  140.4465  162.4530 C.ar    1  UNL1       -0.0255
      7 C         143.1512  139.1142  162.7852 C.ar    1  UNL1       -0.0046
      8 C         143.8619  138.3274  161.7243 C.ar    1  UNL1       -0.0003
      9 C         143.9690  138.8729  160.3311 C.ar    1  UNL1       -0.0003
     10 C         143.3652  140.2052  159.9988 C.ar    1  UNL1       -0.0042
     11 C         142.6545  140.9920  161.0598 C.ar    1  UNL1       -0.0217
     12 C         142.1278  142.2887  160.5201 C.3     1  UNL1        0.0520
     13 C         141.3640  143.3602  161.2402 C.ar    1  UNL1       -0.0218
     14 C         141.0249  144.5001  160.3262 C.ar    1  UNL1       -0.0042
     15 C         140.2601  145.6794  160.8498 C.ar    1  UNL1       -0.0003
     16 C         139.8344  145.7188  162.2875 C.ar    1  UNL1       -0.0003
     17 C         140.1735  144.5789  163.2017 C.ar    1  UNL1       -0.0046
     18 C         140.9383  143.3995  162.6780 C.ar    1  UNL1       -0.0261
     19 C         141.2699  141.5259  164.9818 C.3     1  UNL1        0.0203
     20 C         140.2371  141.0635  169.5061 C.3     1  UNL1        0.0684
     21 C         140.2134  140.4188  168.1519 C.3     1  UNL1        0.0790
     22 N         140.4365  141.7565  167.5111 N.3     1  UNL1       -0.2732
     23 C         140.4603  142.4013  168.8652 C.3     1  UNL1        0.0790
     24 O         139.2664  139.3588  171.2095 O.co2   1  UNL1       -0.5491
     25 C         140.0962  140.5736  170.9168 C.2     1  UNL1        0.0527
     26 O         140.7851  141.2985  172.0348 O.co2   1  UNL1       -0.5491
@<TRIPOS>UNITY_ATOM_ATTR
24 1
charge -1
@<TRIPOS>BOND
     1    24    25   ar
     2    25    26   ar
     3    25    20    1
     4    20    21    1
     5    21    22    1
     6    22     1    1
     7     1     2    1
     8     2     3    1
     9     4     3    1
    10     4     5    1
    11     5     6    1
    12     6     7   ar
    13     7     8   ar
    14     8     9   ar
    15     9    10   ar
    16    10    11   ar
    17    11    12    1
    18    12    13    1
    19    13    14   ar
    20    14    15   ar
    21    15    16   ar
    22    16    17   ar
    23    17    18   ar
    24     4    19    1
    25    22    23    1
    26    23    20    1
    27    19     1    1
    28    18     4    1
    29    11     6   ar
    30    18    13   ar
@<TRIPOS>MOLECULE
*****
 26 30 0 0 0
SMALL
GASTEIGER

@<TRIPOS>ATOM
      1 C         142.2556  138.9900  162.0485 C.3     1  UNL1        0.0579
      2 C         142.8787  138.3136  163.2335 C.3     1  UNL1        0.0163
      3 C         142.4989  139.0869  164.4613 C.3     1  UNL1        0.0058
      4 C         141.6412  140.2413  164.0352 C.3     1  UNL1        0.0240
      5 C         140.8187  141.2990  163.3607 C.3     1  UNL1        0.0301
      6 C         140.0933  142.4566  163.9803 C.ar    1  UNL1       -0.0255
      7 C         139.3876  143.2794  162.9436 C.ar    1  UNL1       -0.0046
      8 C         138.5998  144.4880  163.3540 C.ar    1  UNL1       -0.0003
      9 C         138.5178  144.8739  164.8012 C.ar    1  UNL1       -0.0003
     10 C         139.2236  144.0511  165.8380 C.ar    1  UNL1       -0.0042
     11 C         140.0113  142.8424  165.4275 C.ar    1  UNL1       -0.0217
     12 C         140.6344  142.1659  166.6125 C.3     1  UNL1        0.0520
     13 C         141.4934  140.9366  166.6430 C.ar    1  UNL1       -0.0218
     14 C         141.9114  140.5947  168.0424 C.ar    1  UNL1       -0.0042
     15 C         142.7774  139.3962  168.2948 C.ar    1  UNL1       -0.0003
     16 C         143.2255  138.5397  167.1478 C.ar    1  UNL1       -0.0003
     17 C         142.8074  138.8816  165.7484 C.ar    1  UNL1       -0.0046
     18 C         141.9414  140.0801  165.4960 C.ar    1  UNL1       -0.0261
     19 C         141.4908  140.1815  162.5440 C.3     1  UNL1        0.0203
     20 C         142.5468  137.9324  158.5973 C.3     1  UNL1        0.0684
     21 C         141.9176  139.0989  159.2997 C.3     1  UNL1        0.0790
     22 N         142.3762  138.5519  160.6190 N.3     1  UNL1       -0.2732
     23 C         143.0055  137.3854  159.9166 C.3     1  UNL1        0.0790
     24 O         143.8548  137.9130  156.3526 O.co2   1  UNL1       -0.5491
     25 C         142.6675  137.4942  157.1678 C.2     1  UNL1        0.0527
     26 O         141.6006  136.6372  156.5535 O.co2   1  UNL1       -0.5491
@<TRIPOS>UNITY_ATOM_ATTR
24 1
charge -1
@<TRIPOS>BOND
     1    24    25   ar
     2    25    26   ar
     3    25    20    1
     4    20    21    1
     5    21    22    1
     6    22     1    1
     7     1     2    1
     8     2     3    1
     9     4     3    1
    10     4     5    1
    11     5     6    1
    12     6     7   ar
    13     7     8   ar
    14     8     9   ar
    15     9    10   ar
    16    10    11   ar
    17    11    12    1
    18    12    13    1
    19    13    14   ar
    20    14    15   ar
    21    15    16   ar
    22    16    17   ar
    23    17    18   ar
    24     4    19    1
    25    22    23    1
    26    23    20    1
    27    19     1    1
    28    18     4    1
    29    11     6   ar
    30    18    13   ar
@<TRIPOS>MOLECULE
*****
 26 30 0 0 0
SMALL
GASTEIGER

@<TRIPOS>ATOM
      1 C         142.9180  139.4259  161.3036 C.3     1  UNL1        0.0579
      2 C         143.9364  140.4649  161.6686 C.3     1  UNL1        0.0163
      3 C         143.6134  140.9672  163.0446 C.3     1  UNL1        0.0058
      4 C         142.3953  140.2386  163.5299 C.3     1  UNL1        0.0240
      5 C         141.1869  139.3852  163.7773 C.3     1  UNL1        0.0301
      6 C         140.3065  139.3397  164.9910 C.ar    1  UNL1       -0.0255
      7 C         139.1996  138.3407  164.8279 C.ar    1  UNL1       -0.0046
      8 C         138.2034  138.1385  165.9309 C.ar    1  UNL1       -0.0003
      9 C         138.3141  138.9353  167.1969 C.ar    1  UNL1       -0.0003
     10 C         139.4210  139.9343  167.3600 C.ar    1  UNL1       -0.0042
     11 C         140.4172  140.1365  166.2570 C.ar    1  UNL1       -0.0217
     12 C         141.4356  141.1755  166.6220 C.3     1  UNL1        0.0520
     13 C         142.5949  141.6744  165.8113 C.ar    1  UNL1       -0.0218
     14 C         143.3704  142.7234  166.5516 C.ar    1  UNL1       -0.0042
     15 C         144.5730  143.3555  165.9158 C.ar    1  UNL1       -0.0003
     16 C         145.0001  142.9385  164.5398 C.ar    1  UNL1       -0.0003
     17 C         144.2245  141.8895  163.7994 C.ar    1  UNL1       -0.0046
     18 C         143.0219  141.2574  164.4352 C.ar    1  UNL1       -0.0261
     19 C         141.9655  139.2860  162.4539 C.3     1  UNL1        0.0203
     20 C         142.7825  137.5793  158.1914 C.3     1  UNL1        0.0684
     21 C         142.7290  139.0306  158.5668 C.3     1  UNL1        0.0790
     22 N         142.8619  138.6610  160.0145 N.3     1  UNL1       -0.2732
     23 C         142.9154  137.2097  159.6390 C.3     1  UNL1        0.0790
     24 O         143.9825  136.5697  156.1200 O.co2   1  UNL1       -0.5491
     25 C         142.7264  136.8144  156.9023 C.2     1  UNL1        0.0527
     26 O         141.4139  136.2941  156.3955 O.co2   1  UNL1       -0.5491
@<TRIPOS>UNITY_ATOM_ATTR
24 1
charge -1
@<TRIPOS>BOND
     1    24    25   ar
     2    25    26   ar
     3    25    20    1
     4    20    21    1
     5    21    22    1
     6    22     1    1
     7     1     2    1
     8     2     3    1
     9     4     3    1
    10     4     5    1
    11     5     6    1
    12     6     7   ar
    13     7     8   ar
    14     8     9   ar
    15     9    10   ar
    16    10    11   ar
    17    11    12    1
    18    12    13    1
    19    13    14   ar
    20    14    15   ar
    21    15    16   ar
    22    16    17   ar
    23    17    18   ar
    24     4    19    1
    25    22    23    1
    26    23    20    1
    27    19     1    1
    28    18     4    1
    29    11     6   ar
    30    18    13   ar
@<TRIPOS>MOLECULE
*****
 26 30 0 0 0
SMALL
GASTEIGER

@<TRIPOS>ATOM
      1 C         139.6710  139.3773  161.7287 C.3     1  UNL1        0.0579
      2 C         138.6973  138.8126  162.7201 C.3     1  UNL1        0.0163
      3 C         139.1042  139.2786  164.0865 C.3     1  UNL1        0.0058
      4 C         140.3295  140.1314  163.9396 C.3     1  UNL1        0.0240
      5 C         141.5297  140.9324  163.5300 C.3     1  UNL1        0.0301
      6 C         142.4721  141.7147  164.3961 C.ar    1  UNL1       -0.0255
      7 C         143.5459  142.3734  163.5818 C.ar    1  UNL1       -0.0046
      8 C         144.5944  143.2067  164.2572 C.ar    1  UNL1       -0.0003
      9 C         144.5692  143.3812  165.7468 C.ar    1  UNL1       -0.0003
     10 C         143.4954  142.7224  166.5610 C.ar    1  UNL1       -0.0042
     11 C         142.4469  141.8892  165.8857 C.ar    1  UNL1       -0.0217
     12 C         141.4731  141.3245  166.8771 C.3     1  UNL1        0.0520
     13 C         140.2840  140.4458  166.6238 C.ar    1  UNL1       -0.0218
     14 C         139.5729  140.1047  167.8997 C.ar    1  UNL1       -0.0042
     15 C         138.3529  139.2327  167.8683 C.ar    1  UNL1       -0.0003
     16 C         137.8439  138.7017  166.5611 C.ar    1  UNL1       -0.0003
     17 C         138.5551  139.0428  165.2851 C.ar    1  UNL1       -0.0046
     18 C         139.7751  139.9148  165.3165 C.ar    1  UNL1       -0.0261
     19 C         140.6798  140.1923  162.4824 C.3     1  UNL1        0.0203
     20 C         139.5991  138.8631  158.1448 C.3     1  UNL1        0.0684
     21 C         140.5055  138.4332  159.2600 C.3     1  UNL1        0.0790
     22 N         139.6412  139.1643  160.2442 N.3     1  UNL1       -0.2732
     23 C         138.7349  139.5941  159.1290 C.3     1  UNL1        0.0790
     24 O         138.7929  137.5043  156.0824 O.co2   1  UNL1       -0.5491
     25 C         139.5693  138.6501  156.6603 C.2     1  UNL1        0.0527
     26 O         140.3159  139.5832  155.7536 O.co2   1  UNL1       -0.5491
@<TRIPOS>UNITY_ATOM_ATTR
24 1
charge -1
@<TRIPOS>BOND
     1    24    25   ar
     2    25    26   ar
     3    25    20    1
     4    20    21    1
     5    21    22    1
     6    22     1    1
     7     1     2    1
     8     2     3    1
     9     4     3    1
    10     4     5    1
    11     5     6    1
    12     6     7   ar
    13     7     8   ar
    14     8     9   ar
    15     9    10   ar
    16    10    11   ar
    17    11    12    1
    18    12    13    1
    19    13    14   ar
    20    14    15   ar
    21    15    16   ar
    22    16    17   ar
    23    17    18   ar
    24     4    19    1
    25    22    23    1
    26    23    20    1
    27    19     1    1
    28    18     4    1
    29    11     6   ar
    30    18    13   ar
@<TRIPOS>MOLECULE
*****
 26 30 0 0 0
SMALL
GASTEIGER

@<TRIPOS>ATOM
      1 C         141.1738  140.0342  159.8879 C.3     1  UNL1        0.0579
      2 C         141.0608  141.5264  159.7851 C.3     1  UNL1        0.0163
      3 C         140.3741  142.0255  161.0217 C.3     1  UNL1        0.0058
      4 C         140.0627  140.8418  161.8888 C.3     1  UNL1        0.0240
      5 C         139.8671  139.5148  162.5601 C.3     1  UNL1        0.0301
      6 C         139.2241  139.2216  163.8832 C.ar    1  UNL1       -0.0255
      7 C         139.2337  137.7521  164.1836 C.ar    1  UNL1       -0.0046
      8 C         138.6371  137.2441  165.4627 C.ar    1  UNL1       -0.0003
      9 C         138.0308  138.2058  166.4413 C.ar    1  UNL1       -0.0003
     10 C         138.0212  139.6753  166.1409 C.ar    1  UNL1       -0.0042
     11 C         138.6179  140.1832  164.8619 C.ar    1  UNL1       -0.0217
     12 C         138.5049  141.6755  164.7590 C.3     1  UNL1        0.0520
     13 C         138.9703  142.5746  163.6523 C.ar    1  UNL1       -0.0218
     14 C         138.6603  144.0123  163.9471 C.ar    1  UNL1       -0.0042
     15 C         139.0436  145.0790  162.9646 C.ar    1  UNL1       -0.0003
     16 C         139.7369  144.7080  161.6873 C.ar    1  UNL1       -0.0003
     17 C         140.0468  143.2702  161.3924 C.ar    1  UNL1       -0.0046
     18 C         139.6635  142.2036  162.3749 C.ar    1  UNL1       -0.0261
     19 C         140.5569  139.6111  161.1880 C.3     1  UNL1        0.0203
     20 C         142.6726  137.8386  157.4288 C.3     1  UNL1        0.0684
     21 C         142.6384  137.8860  158.9277 C.3     1  UNL1        0.0790
     22 N         141.7946  139.1248  158.8693 N.3     1  UNL1       -0.2732
     23 C         141.8288  139.0774  157.3704 C.3     1  UNL1        0.0790
     24 O         144.5616  137.3327  155.7184 O.co2   1  UNL1       -0.5491
     25 C         143.2934  136.9292  156.4102 C.2     1  UNL1        0.0527
     26 O         142.6459  135.6162  156.0833 O.co2   1  UNL1       -0.5491
@<TRIPOS>UNITY_ATOM_ATTR
24 1
charge -1
@<TRIPOS>BOND
     1    24    25   ar
     2    25    26   ar
     3    25    20    1
     4    20    21    1
     5    21    22    1
     6    22     1    1
     7     1     2    1
     8     2     3    1
     9     4     3    1
    10     4     5    1
    11     5     6    1
    12     6     7   ar
    13     7     8   ar
    14     8     9   ar
    15     9    10   ar
    16    10    11   ar
    17    11    12    1
    18    12    13    1
    19    13    14   ar
    20    14    15   ar
    21    15    16   ar
    22    16    17   ar
    23    17    18   ar
    24     4    19    1
    25    22    23    1
    26    23    20    1
    27    19     1    1
    28    18     4    1
    29    11     6   ar
    30    18    13   ar
@<TRIPOS>MOLECULE
*****
 26 30 0 0 0
SMALL
GASTEIGER

@<TRIPOS>ATOM
      1 C         140.0943  140.9233  166.1193 C.3     1  UNL1        0.0579
      2 C         139.1038  139.9636  165.5296 C.3     1  UNL1        0.0163
      3 C         139.4633  139.7533  164.0887 C.3     1  UNL1        0.0058
      4 C         140.6762  140.5831  163.7878 C.3     1  UNL1        0.0240
      5 C         141.8724  141.4871  163.7447 C.3     1  UNL1        0.0301
      6 C         142.7753  141.7891  162.5856 C.ar    1  UNL1       -0.0255
      7 C         143.8591  142.7516  162.9714 C.ar    1  UNL1       -0.0046
      8 C         144.8726  143.1867  161.9548 C.ar    1  UNL1       -0.0003
      9 C         144.8022  142.6592  160.5523 C.ar    1  UNL1       -0.0003
     10 C         143.7184  141.6968  160.1665 C.ar    1  UNL1       -0.0042
     11 C         142.7050  141.2617  161.1831 C.ar    1  UNL1       -0.0217
     12 C         141.7143  140.3020  160.5935 C.3     1  UNL1        0.0520
     13 C         140.5494  139.6327  161.2606 C.ar    1  UNL1       -0.0218
     14 C         139.8091  138.7424  160.3070 C.ar    1  UNL1       -0.0042
     15 C         138.6069  137.9772  160.7750 C.ar    1  UNL1       -0.0003
     16 C         138.1449  138.1023  162.1965 C.ar    1  UNL1       -0.0003
     17 C         138.8852  138.9926  163.1502 C.ar    1  UNL1       -0.0046
     18 C         140.0874  139.7578  162.6822 C.ar    1  UNL1       -0.0261
     19 C         141.0662  141.3062  165.0427 C.3     1  UNL1        0.0203
     20 C         140.1329  142.1079  169.5412 C.3     1  UNL1        0.0684
     21 C         140.4966  142.6972  168.2105 C.3     1  UNL1        0.0790
     22 N         140.1103  141.4140  167.5367 N.3     1  UNL1       -0.2732
     23 C         139.7466  140.8247  168.8673 C.3     1  UNL1        0.0790
     24 O         141.2798  142.2233  171.8695 O.co2   1  UNL1       -0.5491
     25 C         140.1488  142.5985  170.9586 C.2     1  UNL1        0.0527
     26 O         139.0336  143.4645  171.4650 O.co2   1  UNL1       -0.5491
@<TRIPOS>UNITY_ATOM_ATTR
24 1
charge -1
@<TRIPOS>BOND
     1    24    25   ar
     2    25    26   ar
     3    25    20    1
     4    20    21    1
     5    21    22    1
     6    22     1    1
     7     1     2    1
     8     2     3    1
     9     4     3    1
    10     4     5    1
    11     5     6    1
    12     6     7   ar
    13     7     8   ar
    14     8     9   ar
    15     9    10   ar
    16    10    11   ar
    17    11    12    1
    18    12    13    1
    19    13    14   ar
    20    14    15   ar
    21    15    16   ar
    22    16    17   ar
    23    17    18   ar
    24     4    19    1
    25    22    23    1
    26    23    20    1
    27    19     1    1
    28    18     4    1
    29    11     6   ar
    30    18    13   ar
@<TRIPOS>MOLECULE
*****
 26 30 0 0 0
SMALL
GASTEIGER

@<TRIPOS>ATOM
      1 C         140.0517  141.8071  161.1144 C.3     1  UNL1        0.0579
      2 C         141.3377  142.5735  161.2065 C.3     1  UNL1        0.0163
      3 C         141.8043  142.5267  162.6313 C.3     1  UNL1        0.0058
      4 C         140.8065  141.7313  163.4198 C.3     1  UNL1        0.0240
      5 C         139.6793  140.9113  163.9739 C.3     1  UNL1        0.0301
      6 C         139.4639  140.4498  165.3848 C.ar    1  UNL1       -0.0255
      7 C         138.2030  139.6475  165.5126 C.ar    1  UNL1       -0.0046
      8 C         137.8008  139.0898  166.8456 C.ar    1  UNL1       -0.0003
      9 C         138.6594  139.3344  168.0510 C.ar    1  UNL1       -0.0003
     10 C         139.9203  140.1368  167.9233 C.ar    1  UNL1       -0.0042
     11 C         140.3225  140.6945  166.5902 C.ar    1  UNL1       -0.0217
     12 C         141.6086  141.4610  166.6822 C.3     1  UNL1        0.0520
     13 C         142.3538  142.1722  165.5918 C.ar    1  UNL1       -0.0218
     14 C         143.6041  142.8167  166.1126 C.ar    1  UNL1       -0.0042
     15 C         144.4974  143.5814  165.1814 C.ar    1  UNL1       -0.0003
     16 C         144.1405  143.7017  163.7295 C.ar    1  UNL1       -0.0003
     17 C         142.8901  143.0572  163.2087 C.ar    1  UNL1       -0.0046
     18 C         141.9967  142.2924  164.1399 C.ar    1  UNL1       -0.0261
     19 C         139.7233  141.2865  162.4823 C.3     1  UNL1        0.0203
     20 C         138.0848  141.3020  158.1160 C.3     1  UNL1        0.0684
     21 C         138.8102  140.4028  159.0727 C.3     1  UNL1        0.0790
     22 N         139.2370  141.5979  159.8724 N.3     1  UNL1       -0.2732
     23 C         138.5117  142.4971  158.9157 C.3     1  UNL1        0.0790
     24 O         135.9238  140.4376  156.9616 O.co2   1  UNL1       -0.5491
     25 C         137.2701  141.0929  156.8740 C.2     1  UNL1        0.0527
     26 O         137.8019  141.5393  155.5443 O.co2   1  UNL1       -0.5491
@<TRIPOS>UNITY_ATOM_ATTR
24 1
charge -1
@<TRIPOS>BOND
     1    24    25   ar
     2    25    26   ar
     3    25    20    1
     4    20    21    1
     5    21    22    1
     6    22     1    1
     7     1     2    1
     8     2     3    1
     9     4     3    1
    10     4     5    1
    11     5     6    1
    12     6     7   ar
    13     7     8   ar
    14     8     9   ar
    15     9    10   ar
    16    10    11   ar
    17    11    12    1
    18    12    13    1
    19    13    14   ar
    20    14    15   ar
    21    15    16   ar
    22    16    17   ar
    23    17    18   ar
    24     4    19    1
    25    22    23    1
    26    23    20    1
    27    19     1    1
    28    18     4    1
    29    11     6   ar
    30    18    13   ar
@<TRIPOS>MOLECULE
*****
 26 30 0 0 0
SMALL
GASTEIGER

@<TRIPOS>ATOM
      1 C         139.9434  140.7536  166.4266 C.3     1  UNL1        0.0579
      2 C         139.5191  139.4509  165.8160 C.3     1  UNL1        0.0163
      3 C         139.3196  139.6713  164.3458 C.3     1  UNL1        0.0058
      4 C         139.6207  141.1102  164.0478 C.3     1  UNL1        0.0240
      5 C         139.9719  142.5681  164.0132 C.3     1  UNL1        0.0301
      6 C         139.9963  143.4967  162.8353 C.ar    1  UNL1       -0.0255
      7 C         140.4052  144.8824  163.2383 C.ar    1  UNL1       -0.0046
      8 C         140.4933  145.9681  162.2070 C.ar    1  UNL1       -0.0003
      9 C         140.1725  145.6679  160.7728 C.ar    1  UNL1       -0.0003
     10 C         139.7636  144.2822  160.3698 C.ar    1  UNL1       -0.0042
     11 C         139.6755  143.1965  161.4011 C.ar    1  UNL1       -0.0217
     12 C         139.2511  141.8938  160.7905 C.3     1  UNL1        0.0520
     13 C         139.0427  140.5694  161.4633 C.ar    1  UNL1       -0.0218
     14 C         138.6160  139.5176  160.4826 C.ar    1  UNL1       -0.0042
     15 C         138.3538  138.1172  160.9516 C.ar    1  UNL1       -0.0003
     16 C         138.5183  137.7685  162.4011 C.ar    1  UNL1       -0.0003
     17 C         138.9450  138.8203  163.3818 C.ar    1  UNL1       -0.0046
     18 C         139.2072  140.2207  162.9129 C.ar    1  UNL1       -0.0261
     19 C         140.0063  141.7792  165.3337 C.3     1  UNL1        0.0203
     20 C         140.6860  141.3229  169.9250 C.3     1  UNL1        0.0684
     21 C         140.4500  142.2035  168.7338 C.3     1  UNL1        0.0790
     22 N         140.2510  140.9894  167.8757 N.3     1  UNL1       -0.2732
     23 C         140.4870  140.1088  169.0668 C.3     1  UNL1        0.0790
     24 O         142.1370  140.8384  172.0249 O.co2   1  UNL1       -0.5491
     25 C         140.9935  141.5586  171.3741 C.2     1  UNL1        0.0527
     26 O         140.1575  142.5146  172.1723 O.co2   1  UNL1       -0.5491
@<TRIPOS>UNITY_ATOM_ATTR
24 1
charge -1
@<TRIPOS>BOND
     1    24    25   ar
     2    25    26   ar
     3    25    20    1
     4    20    21    1
     5    21    22    1
     6    22     1    1
     7     1     2    1
     8     2     3    1
     9     4     3    1
    10     4     5    1
    11     5     6    1
    12     6     7   ar
    13     7     8   ar
    14     8     9   ar
    15     9    10   ar
    16    10    11   ar
    17    11    12    1
    18    12    13    1
    19    13    14   ar
    20    14    15   ar
    21    15    16   ar
    22    16    17   ar
    23    17    18   ar
    24     4    19    1
    25    22    23    1
    26    23    20    1
    27    19     1    1
    28    18     4    1
    29    11     6   ar
    30    18    13   ar
