@<TRIPOS>MOLECULE
*****
 31 33 0 0 0
SMALL
GASTEIGER

@<TRIPOS>ATOM
      1 C         144.4472  140.1298  162.6395 C.2     1  UNL1        0.2271
      2 O         145.2732  141.2834  162.1527 O.2     1  UNL1       -0.2747
      3 N         143.3028  139.6247  161.8116 N.am    1  UNL1       -0.3005
      4 H         142.7606  138.8676  162.1311 H       1  UNL1        0.1497
      5 C         142.9846  140.2730  160.4970 C.3     1  UNL1        0.1119
      6 C         143.4791  139.6611  159.2199 C.3     1  UNL1        0.0278
      7 C         142.1718  141.5332  160.4594 C.ar    1  UNL1        0.0770
      8 C         140.6748  141.4623  160.5215 C.ar    1  UNL1        0.0195
      9 C         139.8621  142.7225  160.4840 C.ar    1  UNL1        0.0398
     10 C         140.5464  144.0535  160.3843 C.ar    1  UNL1        0.1580
     11 C         142.0434  144.1244  160.3222 C.ar    1  UNL1        0.1353
     12 N         142.8561  142.8642  160.3598 N.ar    1  UNL1       -0.2433
     13 O         139.7336  145.3137  160.3468 O.3     1  UNL1       -0.4650
     14 C         139.5752  146.1412  161.5878 C.3     1  UNL1        0.3082
     15 C         139.7216  145.5042  162.9378 C.3     1  UNL1        0.4380
     16 F         139.8679  144.8671  164.2879 F       1  UNL1       -0.1663
     17 F         141.1432  145.9777  163.0072 F       1  UNL1       -0.1663
     18 F         138.3000  145.0306  162.8685 F       1  UNL1       -0.1663
     19 C         144.7654  139.4815  163.9542 C.3     1  UNL1        0.1113
     20 C         142.3354  140.4873  167.6057 C.ar    1  UNL1        0.0358
     21 C         142.7442  139.0680  167.3445 C.ar    1  UNL1        0.0028
     22 C         143.5542  138.7327  166.1273 C.ar    1  UNL1       -0.0037
     23 C         143.9553  139.8168  165.1714 C.ar    1  UNL1       -0.0131
     24 C         143.5465  141.2362  165.4326 C.ar    1  UNL1       -0.0037
     25 C         142.7365  141.5714  166.6497 C.ar    1  UNL1        0.0028
     26 C         139.1571  139.8756  168.0231 C.3     1  UNL1        0.0555
     27 C         140.0645  140.5414  169.0147 C.ar    1  UNL1        0.0970
     28 N         139.6703  141.0430  170.3723 N.ar    1  UNL1       -0.2086
     29 C         140.8876  141.6342  171.0195 C.ar    1  UNL1        0.2848
     30 O         142.0340  141.4980  170.0619 O.2     1  UNL1       -0.4315
     31 C         141.5253  140.8226  168.8229 C.ar    1  UNL1        0.1607
@<TRIPOS>BOND
     1    26    27    1
     2    27    28   ar
     3    28    29   ar
     4    29    30   ar
     5    30    31   ar
     6    31    20    1
     7    20    21   ar
     8    21    22   ar
     9    22    23   ar
    10    23    19    1
    11    19     1    1
    12     1     2    2
    13     1     3   am
    14     3     5    1
    15     5     6    1
    16     5     7    1
    17     7     8   ar
    18     8     9   ar
    19     9    10   ar
    20    10    13    1
    21    13    14    1
    22    14    15    1
    23    15    16    1
    24    15    17    1
    25    15    18    1
    26    10    11   ar
    27    11    12   ar
    28    23    24   ar
    29    24    25   ar
    30    31    27   ar
    31    25    20   ar
    32    12     7   ar
    33     3     4    1
@<TRIPOS>MOLECULE
*****
 31 33 0 0 0
SMALL
GASTEIGER

@<TRIPOS>ATOM
      1 C         139.0140  138.2473  162.5602 C.2     1  UNL1        0.2271
      2 O         137.6874  138.5397  161.9240 O.2     1  UNL1       -0.2747
      3 N         140.2826  138.6505  161.8687 N.am    1  UNL1       -0.3005
      4 H         141.1532  138.4586  162.2863 H       1  UNL1        0.1497
      5 C         140.2246  139.3460  160.5410 C.3     1  UNL1        0.1119
      6 C         140.2678  138.5461  159.2729 C.3     1  UNL1        0.0278
      7 C         140.1235  140.8414  160.4814 C.ar    1  UNL1        0.0770
      8 C         141.3686  141.6779  160.4834 C.ar    1  UNL1        0.0195
      9 C         141.2675  143.1733  160.4238 C.ar    1  UNL1        0.0398
     10 C         139.9213  143.8322  160.3622 C.ar    1  UNL1        0.1580
     11 C         138.6763  142.9956  160.3602 C.ar    1  UNL1        0.1353
     12 N         138.7774  141.5002  160.4198 N.ar    1  UNL1       -0.2433
     13 O         139.8202  145.3276  160.3026 O.3     1  UNL1       -0.4650
     14 C         139.7007  146.1223  161.5691 C.3     1  UNL1        0.3082
     15 C         139.8187  145.4373  162.8983 C.3     1  UNL1        0.4380
     16 F         139.9367  144.7523  164.2276 F       1  UNL1       -0.1663
     17 F         138.3405  145.1820  162.8980 F       1  UNL1       -0.1663
     18 F         141.2968  145.6925  162.8987 F       1  UNL1       -0.1663
     19 C         139.0719  137.5519  163.8880 C.3     1  UNL1        0.1113
     20 C         140.0780  139.8798  167.6053 C.ar    1  UNL1        0.0358
     21 C         141.1379  139.6118  166.5784 C.ar    1  UNL1        0.0028
     22 C         140.8026  138.8359  165.3393 C.ar    1  UNL1       -0.0037
     23 C         139.4073  138.3278  165.1271 C.ar    1  UNL1       -0.0131
     24 C         138.3473  138.5958  166.1541 C.ar    1  UNL1       -0.0037
     25 C         138.6827  139.3717  167.3932 C.ar    1  UNL1        0.0028
     26 C         142.2377  139.0057  169.8903 C.3     1  UNL1        0.0555
     27 C         141.4060  140.2540  169.8947 C.ar    1  UNL1        0.0970
     28 N         141.4210  141.3197  170.9502 N.ar    1  UNL1       -0.2086
     29 C         140.4376  142.3801  170.5523 C.ar    1  UNL1        0.2848
     30 O         139.8148  141.9698  169.2509 O.2     1  UNL1       -0.4315
     31 C         140.4133  140.6558  168.8445 C.ar    1  UNL1        0.1607
@<TRIPOS>BOND
     1    26    27    1
     2    27    28   ar
     3    28    29   ar
     4    29    30   ar
     5    30    31   ar
     6    31    20    1
     7    20    21   ar
     8    21    22   ar
     9    22    23   ar
    10    23    19    1
    11    19     1    1
    12     1     2    2
    13     1     3   am
    14     3     5    1
    15     5     6    1
    16     5     7    1
    17     7     8   ar
    18     8     9   ar
    19     9    10   ar
    20    10    13    1
    21    13    14    1
    22    14    15    1
    23    15    16    1
    24    15    17    1
    25    15    18    1
    26    10    11   ar
    27    11    12   ar
    28    23    24   ar
    29    24    25   ar
    30    31    27   ar
    31    25    20   ar
    32    12     7   ar
    33     3     4    1
@<TRIPOS>MOLECULE
*****
 31 33 0 0 0
SMALL
GASTEIGER

@<TRIPOS>ATOM
      1 C         140.7754  137.8835  163.8494 C.2     1  UNL1        0.2271
      2 O         141.5257  136.7992  164.5644 O.2     1  UNL1       -0.2747
      3 N         141.3163  139.2825  163.8299 N.am    1  UNL1       -0.3005
      4 H         140.8239  139.9942  163.3606 H       1  UNL1        0.1497
      5 C         142.6074  139.5971  164.5256 C.3     1  UNL1        0.1119
      6 C         143.9069  139.4737  163.7866 C.3     1  UNL1        0.0278
      7 C         142.5991  140.0352  165.9602 C.ar    1  UNL1        0.0770
      8 C         142.5012  141.4931  166.2986 C.ar    1  UNL1        0.0195
      9 C         142.4929  141.9312  167.7332 C.ar    1  UNL1        0.0398
     10 C         142.5825  140.9112  168.8294 C.ar    1  UNL1        0.1580
     11 C         142.6805  139.4532  168.4909 C.ar    1  UNL1        0.1353
     12 N         142.6888  139.0152  167.0563 N.ar    1  UNL1       -0.2433
     13 O         142.5742  141.3492  170.2640 O.3     1  UNL1       -0.4650
     14 C         141.2881  141.3656  171.0357 C.3     1  UNL1        0.3082
     15 C         140.0060  140.9694  170.3653 C.3     1  UNL1        0.4380
     16 F         138.7240  140.5732  169.6950 F       1  UNL1       -0.1663
     17 F         140.2184  139.5491  170.7986 F       1  UNL1       -0.1663
     18 F         139.7936  142.3897  169.9320 F       1  UNL1       -0.1663
     19 C         139.4842  137.5689  163.1537 C.3     1  UNL1        0.1113
     20 C         138.1918  140.0062  159.5986 C.ar    1  UNL1        0.0358
     21 C         137.4204  140.0855  160.8826 C.ar    1  UNL1        0.0028
     22 C         137.8513  139.2730  162.0676 C.ar    1  UNL1       -0.0037
     23 C         139.0534  138.3814  161.9686 C.ar    1  UNL1       -0.0131
     24 C         139.8247  138.3022  160.6846 C.ar    1  UNL1       -0.0037
     25 C         139.3939  139.1146  159.4996 C.ar    1  UNL1        0.0028
     26 C         139.1426  143.0518  158.9128 C.3     1  UNL1        0.0555
     27 C         138.1980  142.2185  158.0983 C.ar    1  UNL1        0.0970
     28 N         137.5246  142.6389  156.8256 N.ar    1  UNL1       -0.2086
     29 C         136.6713  141.4988  156.3541 C.ar    1  UNL1        0.2848
     30 O         136.8174  140.3738  157.3356 O.2     1  UNL1       -0.4315
     31 C         137.7609  140.8187  158.4135 C.ar    1  UNL1        0.1607
@<TRIPOS>BOND
     1    26    27    1
     2    27    28   ar
     3    28    29   ar
     4    29    30   ar
     5    30    31   ar
     6    31    20    1
     7    20    21   ar
     8    21    22   ar
     9    22    23   ar
    10    23    19    1
    11    19     1    1
    12     1     2    2
    13     1     3   am
    14     3     5    1
    15     5     6    1
    16     5     7    1
    17     7     8   ar
    18     8     9   ar
    19     9    10   ar
    20    10    13    1
    21    13    14    1
    22    14    15    1
    23    15    16    1
    24    15    17    1
    25    15    18    1
    26    10    11   ar
    27    11    12   ar
    28    23    24   ar
    29    24    25   ar
    30    31    27   ar
    31    25    20   ar
    32    12     7   ar
    33     3     4    1
@<TRIPOS>MOLECULE
*****
 31 33 0 0 0
SMALL
GASTEIGER

@<TRIPOS>ATOM
      1 C         140.4582  145.1720  161.0198 C.2     1  UNL1        0.2271
      2 O         139.3548  144.2186  160.6685 O.2     1  UNL1       -0.2747
      3 N         141.4854  145.5421  159.9912 N.am    1  UNL1       -0.3005
      4 H         142.2097  146.1679  160.2217 H       1  UNL1        0.1497
      5 C         141.4092  144.9587  158.6114 C.3     1  UNL1        0.1119
      6 C         140.2319  145.2622  157.7329 C.3     1  UNL1        0.0278
      7 C         142.5103  144.0720  158.1101 C.ar    1  UNL1        0.0770
      8 C         142.6243  143.7733  156.6446 C.ar    1  UNL1        0.0195
      9 C         143.7254  142.8865  156.1434 C.ar    1  UNL1        0.0398
     10 C         144.7124  142.2984  157.1076 C.ar    1  UNL1        0.1580
     11 C         144.5984  142.5971  158.5731 C.ar    1  UNL1        0.1353
     12 N         143.4973  143.4838  159.0744 N.ar    1  UNL1       -0.2433
     13 O         145.8135  141.4116  156.6064 O.3     1  UNL1       -0.4650
     14 C         146.7229  141.8898  155.5136 C.3     1  UNL1        0.3082
     15 C         148.2041  141.9495  155.7429 C.3     1  UNL1        0.4380
     16 F         149.6853  142.0093  155.9722 F       1  UNL1       -0.1663
     17 F         147.9691  142.5054  157.1162 F       1  UNL1       -0.1663
     18 F         148.4391  141.3937  154.3697 F       1  UNL1       -0.1663
     19 C         140.5344  145.7554  162.3995 C.3     1  UNL1        0.1113
     20 C         140.3623  143.0564  165.9962 C.ar    1  UNL1        0.0358
     21 C         139.2015  143.9495  165.6725 C.ar    1  UNL1        0.0028
     22 C         139.2589  144.8491  164.4736 C.ar    1  UNL1       -0.0037
     23 C         140.4771  144.8557  163.5985 C.ar    1  UNL1       -0.0131
     24 C         141.6379  143.9626  163.9222 C.ar    1  UNL1       -0.0037
     25 C         141.5805  143.0629  165.1210 C.ar    1  UNL1        0.0028
     26 C         139.2998  139.9710  166.0301 C.3     1  UNL1        0.0555
     27 C         139.8166  140.7386  167.2107 C.ar    1  UNL1        0.0970
     28 N         139.9357  140.2227  168.6141 N.ar    1  UNL1       -0.2086
     29 C         140.4978  141.3220  169.4660 C.ar    1  UNL1        0.2848
     30 O         140.7260  142.5173  168.5890 O.2     1  UNL1       -0.4315
     31 C         140.3050  142.1567  167.1951 C.ar    1  UNL1        0.1607
@<TRIPOS>BOND
     1    26    27    1
     2    27    28   ar
     3    28    29   ar
     4    29    30   ar
     5    30    31   ar
     6    31    20    1
     7    20    21   ar
     8    21    22   ar
     9    22    23   ar
    10    23    19    1
    11    19     1    1
    12     1     2    2
    13     1     3   am
    14     3     5    1
    15     5     6    1
    16     5     7    1
    17     7     8   ar
    18     8     9   ar
    19     9    10   ar
    20    10    13    1
    21    13    14    1
    22    14    15    1
    23    15    16    1
    24    15    17    1
    25    15    18    1
    26    10    11   ar
    27    11    12   ar
    28    23    24   ar
    29    24    25   ar
    30    31    27   ar
    31    25    20   ar
    32    12     7   ar
    33     3     4    1
@<TRIPOS>MOLECULE
*****
 31 33 0 0 0
SMALL
GASTEIGER

@<TRIPOS>ATOM
      1 C         138.4059  139.4758  163.9540 C.2     1  UNL1        0.2271
      2 O         137.4202  140.4846  163.4435 O.2     1  UNL1       -0.2747
      3 N         139.3643  138.8175  163.0063 N.am    1  UNL1       -0.3005
      4 H         140.0113  138.1554  163.3413 H       1  UNL1        0.1497
      5 C         139.3370  139.1680  161.5481 C.3     1  UNL1        0.1119
      6 C         139.1499  138.0908  160.5212 C.3     1  UNL1        0.0278
      7 C         139.4967  140.5958  161.1168 C.ar    1  UNL1        0.0770
      8 C         140.7910  141.3130  161.3620 C.ar    1  UNL1        0.0195
      9 C         140.9507  142.7408  160.9306 C.ar    1  UNL1        0.0398
     10 C         139.8160  143.4513  160.2541 C.ar    1  UNL1        0.1580
     11 C         138.5217  142.7340  160.0089 C.ar    1  UNL1        0.1353
     12 N         138.3620  141.3063  160.4402 N.ar    1  UNL1       -0.2433
     13 O         139.9757  144.8790  159.8228 O.3     1  UNL1       -0.4650
     14 C         139.9920  145.9746  160.8472 C.3     1  UNL1        0.3082
     15 C         139.9675  145.6358  162.3082 C.3     1  UNL1        0.4380
     16 F         139.9429  145.2969  163.7692 F       1  UNL1       -0.1663
     17 F         138.4677  145.6454  162.2852 F       1  UNL1       -0.1663
     18 F         141.4673  145.6261  162.3312 F       1  UNL1       -0.1663
     19 C         138.4333  139.1253  165.4122 C.3     1  UNL1        0.1113
     20 C         141.1843  141.3337  168.2060 C.ar    1  UNL1        0.0358
     21 C         140.1664  140.3786  168.7552 C.ar    1  UNL1        0.0028
     22 C         139.2495  139.6425  167.8240 C.ar    1  UNL1       -0.0037
     23 C         139.3504  139.8615  166.3435 C.ar    1  UNL1       -0.0131
     24 C         140.3682  140.8166  165.7942 C.ar    1  UNL1       -0.0037
     25 C         141.2852  141.5527  166.7255 C.ar    1  UNL1        0.0028
     26 C         140.4054  143.9496  169.9950 C.3     1  UNL1        0.0555
     27 C         141.7433  143.2722  169.9595 C.ar    1  UNL1        0.0970
     28 N         142.9581  143.6784  170.7401 N.ar    1  UNL1       -0.2086
     29 C         144.0669  142.7270  170.4003 C.ar    1  UNL1        0.2848
     30 O         143.5374  141.7330  169.4096 O.2     1  UNL1       -0.4315
     31 C         142.1013  142.0699  169.1372 C.ar    1  UNL1        0.1607
@<TRIPOS>BOND
     1    26    27    1
     2    27    28   ar
     3    28    29   ar
     4    29    30   ar
     5    30    31   ar
     6    31    20    1
     7    20    21   ar
     8    21    22   ar
     9    22    23   ar
    10    23    19    1
    11    19     1    1
    12     1     2    2
    13     1     3   am
    14     3     5    1
    15     5     6    1
    16     5     7    1
    17     7     8   ar
    18     8     9   ar
    19     9    10   ar
    20    10    13    1
    21    13    14    1
    22    14    15    1
    23    15    16    1
    24    15    17    1
    25    15    18    1
    26    10    11   ar
    27    11    12   ar
    28    23    24   ar
    29    24    25   ar
    30    31    27   ar
    31    25    20   ar
    32    12     7   ar
    33     3     4    1
@<TRIPOS>MOLECULE
*****
 31 33 0 0 0
SMALL
GASTEIGER

@<TRIPOS>ATOM
      1 C         140.5000  145.0864  161.0084 C.2     1  UNL1        0.2271
      2 O         139.3890  144.2912  160.3893 O.2     1  UNL1       -0.2747
      3 N         141.8014  145.2497  160.2806 N.am    1  UNL1       -0.3005
      4 H         142.5306  145.7716  160.6869 H       1  UNL1        0.1497
      5 C         141.9918  144.6177  158.9336 C.3     1  UNL1        0.1119
      6 C         141.8130  145.4360  157.6893 C.3     1  UNL1        0.0278
      7 C         142.3611  143.1675  158.8310 C.ar    1  UNL1        0.0770
      8 C         143.7359  142.7141  159.2236 C.ar    1  UNL1        0.0195
      9 C         144.1052  141.2639  159.1210 C.ar    1  UNL1        0.0398
     10 C         143.0997  140.2671  158.6258 C.ar    1  UNL1        0.1580
     11 C         141.7248  140.7206  158.2332 C.ar    1  UNL1        0.1353
     12 N         141.3556  142.1708  158.3358 N.ar    1  UNL1       -0.2433
     13 O         143.4689  138.8169  158.5232 O.3     1  UNL1       -0.4650
     14 C         142.7926  137.8068  159.4018 C.3     1  UNL1        0.3082
     15 C         142.7601  138.0075  160.8880 C.3     1  UNL1        0.4380
     16 F         142.7277  138.2082  162.3741 F       1  UNL1       -0.1663
     17 F         144.2399  137.7702  160.9523 F       1  UNL1       -0.1663
     18 F         141.2804  138.2448  160.8236 F       1  UNL1       -0.1663
     19 C         140.3096  145.7184  162.3554 C.3     1  UNL1        0.1113
     20 C         140.3233  143.1652  166.0609 C.ar    1  UNL1        0.0358
     21 C         139.1410  144.0360  165.7546 C.ar    1  UNL1        0.0028
     22 C         139.1365  144.8870  164.5194 C.ar    1  UNL1       -0.0037
     23 C         140.3142  144.8673  163.5906 C.ar    1  UNL1       -0.0131
     24 C         141.4964  143.9964  163.8970 C.ar    1  UNL1       -0.0037
     25 C         141.5010  143.1454  165.1321 C.ar    1  UNL1        0.0028
     26 C         139.4417  140.0278  166.2320 C.3     1  UNL1        0.0555
     27 C         139.9227  140.8720  167.3747 C.ar    1  UNL1        0.0970
     28 N         140.0829  140.4223  168.7967 N.ar    1  UNL1       -0.2086
     29 C         140.5871  141.5865  169.5970 C.ar    1  UNL1        0.2848
     30 O         140.7385  142.7557  168.6696 O.2     1  UNL1       -0.4315
     31 C         140.3279  142.3141  167.2961 C.ar    1  UNL1        0.1607
@<TRIPOS>BOND
     1    26    27    1
     2    27    28   ar
     3    28    29   ar
     4    29    30   ar
     5    30    31   ar
     6    31    20    1
     7    20    21   ar
     8    21    22   ar
     9    22    23   ar
    10    23    19    1
    11    19     1    1
    12     1     2    2
    13     1     3   am
    14     3     5    1
    15     5     6    1
    16     5     7    1
    17     7     8   ar
    18     8     9   ar
    19     9    10   ar
    20    10    13    1
    21    13    14    1
    22    14    15    1
    23    15    16    1
    24    15    17    1
    25    15    18    1
    26    10    11   ar
    27    11    12   ar
    28    23    24   ar
    29    24    25   ar
    30    31    27   ar
    31    25    20   ar
    32    12     7   ar
    33     3     4    1
@<TRIPOS>MOLECULE
*****
 31 33 0 0 0
SMALL
GASTEIGER

@<TRIPOS>ATOM
      1 C         138.9929  138.2721  162.9313 C.2     1  UNL1        0.2271
      2 O         139.9286  137.5602  161.9999 O.2     1  UNL1       -0.2747
      3 N         138.3295  139.5461  162.4989 N.am    1  UNL1       -0.3005
      4 H         137.7153  140.0134  163.1102 H       1  UNL1        0.1497
      5 C         138.6018  140.1081  161.1351 C.3     1  UNL1        0.1119
      6 C         137.5936  139.9359  160.0379 C.3     1  UNL1        0.0278
      7 C         139.8824  140.8422  160.8684 C.ar    1  UNL1        0.0770
      8 C         140.8962  140.2641  159.9261 C.ar    1  UNL1        0.0195
      9 C         142.1768  140.9982  159.6595 C.ar    1  UNL1        0.0398
     10 C         142.4436  142.3106  160.3351 C.ar    1  UNL1        0.1580
     11 C         141.4298  142.8887  161.2774 C.ar    1  UNL1        0.1353
     12 N         140.1492  142.1546  161.5441 N.ar    1  UNL1       -0.2433
     13 O         143.7242  143.0447  160.0685 O.3     1  UNL1       -0.4650
     14 C         144.9719  142.6708  160.8122 C.3     1  UNL1        0.3082
     15 C         144.9073  142.3641  162.2791 C.3     1  UNL1        0.4380
     16 F         144.8426  142.0574  163.7460 F       1  UNL1       -0.1663
     17 F         145.0447  140.9008  161.9792 F       1  UNL1       -0.1663
     18 F         144.7699  143.8274  162.5790 F       1  UNL1       -0.1663
     19 C         138.7206  137.7101  164.2951 C.3     1  UNL1        0.1113
     20 C         139.9565  140.0060  167.9627 C.ar    1  UNL1        0.0358
     21 C         138.5538  139.4893  167.8387 C.ar    1  UNL1        0.0028
     22 C         138.1418  138.7240  166.6161 C.ar    1  UNL1       -0.0037
     23 C         139.1326  138.4755  165.5177 C.ar    1  UNL1       -0.0131
     24 C         140.5353  138.9922  165.6417 C.ar    1  UNL1       -0.0037
     25 C         140.9472  139.7574  166.8642 C.ar    1  UNL1        0.0028
     26 C         140.2847  143.2457  168.1777 C.3     1  UNL1        0.0555
     27 C         140.5193  142.2604  169.2841 C.ar    1  UNL1        0.0970
     28 N         140.9461  142.5913  170.6835 N.ar    1  UNL1       -0.2086
     29 C         141.0590  141.3066  171.4497 C.ar    1  UNL1        0.2848
     30 O         140.7020  140.1818  170.5237 O.2     1  UNL1       -0.4315
     31 C         140.3685  140.7713  169.1853 C.ar    1  UNL1        0.1607
@<TRIPOS>BOND
     1    26    27    1
     2    27    28   ar
     3    28    29   ar
     4    29    30   ar
     5    30    31   ar
     6    31    20    1
     7    20    21   ar
     8    21    22   ar
     9    22    23   ar
    10    23    19    1
    11    19     1    1
    12     1     2    2
    13     1     3   am
    14     3     5    1
    15     5     6    1
    16     5     7    1
    17     7     8   ar
    18     8     9   ar
    19     9    10   ar
    20    10    13    1
    21    13    14    1
    22    14    15    1
    23    15    16    1
    24    15    17    1
    25    15    18    1
    26    10    11   ar
    27    11    12   ar
    28    23    24   ar
    29    24    25   ar
    30    31    27   ar
    31    25    20   ar
    32    12     7   ar
    33     3     4    1
@<TRIPOS>MOLECULE
*****
 31 33 0 0 0
SMALL
GASTEIGER

@<TRIPOS>ATOM
      1 C         139.4713  138.4494  160.4124 C.2     1  UNL1        0.2271
      2 O         140.9211  138.4258  160.7963 O.2     1  UNL1       -0.2747
      3 N         139.0755  138.7365  158.9943 N.am    1  UNL1       -0.3005
      4 H         138.1239  138.7520  158.7423 H       1  UNL1        0.1497
      5 C         140.1296  139.0000  157.9602 C.3     1  UNL1        0.1119
      6 C         140.4952  140.4106  157.6045 C.3     1  UNL1        0.0278
      7 C         140.8180  137.8530  157.2817 C.ar    1  UNL1        0.0770
      8 C         140.1552  137.1548  156.1314 C.ar    1  UNL1        0.0195
      9 C         140.8436  136.0078  155.4529 C.ar    1  UNL1        0.0398
     10 C         142.1948  135.5589  155.9247 C.ar    1  UNL1        0.1580
     11 C         142.8576  136.2570  157.0750 C.ar    1  UNL1        0.1353
     12 N         142.1692  137.4041  157.7535 N.ar    1  UNL1       -0.2433
     13 O         142.8832  134.4118  155.2462 O.3     1  UNL1       -0.4650
     14 C         142.9922  133.0863  155.9397 C.3     1  UNL1        0.3082
     15 C         144.3405  132.4759  156.1834 C.3     1  UNL1        0.4380
     16 F         145.6889  131.8656  156.4271 F       1  UNL1       -0.1663
     17 F         144.1734  131.6194  154.9633 F       1  UNL1       -0.1663
     18 F         144.5077  133.3324  157.4034 F       1  UNL1       -0.1663
     19 C         138.4172  138.1859  161.4465 C.3     1  UNL1        0.1113
     20 C         139.0737  139.4748  165.7077 C.ar    1  UNL1        0.0358
     21 C         139.6981  138.2079  165.2027 C.ar    1  UNL1        0.0028
     22 C         139.4793  137.7783  163.7824 C.ar    1  UNL1       -0.0037
     23 C         138.6360  138.6156  162.8670 C.ar    1  UNL1       -0.0131
     24 C         138.0116  139.8824  163.3720 C.ar    1  UNL1       -0.0037
     25 C         138.2304  140.3121  164.7923 C.ar    1  UNL1        0.0028
     26 C         141.3213  141.6019  166.7438 C.3     1  UNL1        0.0555
     27 C         140.3256  140.8822  167.6044 C.ar    1  UNL1        0.0970
     28 N         140.1882  141.0139  169.0922 N.ar    1  UNL1       -0.2086
     29 C         139.0701  140.1175  169.5356 C.ar    1  UNL1        0.2848
     30 O         138.5166  139.4319  168.3217 O.2     1  UNL1       -0.4315
     31 C         139.2925  139.9045  167.1282 C.ar    1  UNL1        0.1607
@<TRIPOS>BOND
     1    26    27    1
     2    27    28   ar
     3    28    29   ar
     4    29    30   ar
     5    30    31   ar
     6    31    20    1
     7    20    21   ar
     8    21    22   ar
     9    22    23   ar
    10    23    19    1
    11    19     1    1
    12     1     2    2
    13     1     3   am
    14     3     5    1
    15     5     6    1
    16     5     7    1
    17     7     8   ar
    18     8     9   ar
    19     9    10   ar
    20    10    13    1
    21    13    14    1
    22    14    15    1
    23    15    16    1
    24    15    17    1
    25    15    18    1
    26    10    11   ar
    27    11    12   ar
    28    23    24   ar
    29    24    25   ar
    30    31    27   ar
    31    25    20   ar
    32    12     7   ar
    33     3     4    1
@<TRIPOS>MOLECULE
*****
 31 33 0 0 0
SMALL
GASTEIGER

@<TRIPOS>ATOM
      1 C         139.0151  138.1486  162.6125 C.2     1  UNL1        0.2271
      2 O         137.7268  138.0629  161.8489 O.2     1  UNL1       -0.2747
      3 N         140.1811  138.8947  162.0348 N.am    1  UNL1       -0.3005
      4 H         141.0267  138.9510  162.5359 H       1  UNL1        0.1497
      5 C         140.0589  139.5552  160.6936 C.3     1  UNL1        0.1119
      6 C         139.5109  140.9477  160.5905 C.3     1  UNL1        0.0278
      7 C         140.4846  138.8232  159.4555 C.ar    1  UNL1        0.0770
      8 C         141.9275  138.4667  159.2538 C.ar    1  UNL1        0.0195
      9 C         142.3532  137.7347  158.0157 C.ar    1  UNL1        0.0398
     10 C         141.3360  137.3592  156.9792 C.ar    1  UNL1        0.1580
     11 C         139.8931  137.7157  157.1809 C.ar    1  UNL1        0.1353
     12 N         139.4673  138.4477  158.4191 N.ar    1  UNL1       -0.2433
     13 O         141.7617  136.6272  155.7411 O.3     1  UNL1       -0.4650
     14 C         141.7170  135.1284  155.7032 C.3     1  UNL1        0.3082
     15 C         142.9828  134.3364  155.8468 C.3     1  UNL1        0.4380
     16 F         144.2486  133.5444  155.9903 F       1  UNL1       -0.1663
     17 F         143.7618  135.4746  155.2573 F       1  UNL1       -0.1663
     18 F         142.2038  133.1981  156.4363 F       1  UNL1       -0.1663
     19 C         139.1374  137.4881  163.9536 C.3     1  UNL1        0.1113
     20 C         140.1734  139.9391  167.5826 C.ar    1  UNL1        0.0358
     21 C         141.2306  139.6166  166.5686 C.ar    1  UNL1        0.0028
     22 C         140.8853  138.7996  165.3590 C.ar    1  UNL1       -0.0037
     23 C         139.4827  138.3051  165.1633 C.ar    1  UNL1       -0.0131
     24 C         138.4255  138.6276  166.1773 C.ar    1  UNL1       -0.0037
     25 C         138.7708  139.4446  167.3869 C.ar    1  UNL1        0.0028
     26 C         142.2760  139.0949  169.9313 C.3     1  UNL1        0.0555
     27 C         141.4851  140.3681  169.8718 C.ar    1  UNL1        0.0970
     28 N         141.5218  141.4767  170.8815 N.ar    1  UNL1       -0.2086
     29 C         140.5781  142.5500  170.4260 C.ar    1  UNL1        0.2848
     30 O         139.9581  142.1046  169.1348 O.2     1  UNL1       -0.4315
     31 C         140.5187  140.7561  168.7923 C.ar    1  UNL1        0.1607
@<TRIPOS>BOND
     1    26    27    1
     2    27    28   ar
     3    28    29   ar
     4    29    30   ar
     5    30    31   ar
     6    31    20    1
     7    20    21   ar
     8    21    22   ar
     9    22    23   ar
    10    23    19    1
    11    19     1    1
    12     1     2    2
    13     1     3   am
    14     3     5    1
    15     5     6    1
    16     5     7    1
    17     7     8   ar
    18     8     9   ar
    19     9    10   ar
    20    10    13    1
    21    13    14    1
    22    14    15    1
    23    15    16    1
    24    15    17    1
    25    15    18    1
    26    10    11   ar
    27    11    12   ar
    28    23    24   ar
    29    24    25   ar
    30    31    27   ar
    31    25    20   ar
    32    12     7   ar
    33     3     4    1
