@<TRIPOS>MOLECULE
*****
 34 38 0 0 0
SMALL
GASTEIGER

@<TRIPOS>ATOM
      1 C         140.9913  139.4146  160.0329 C.ar    1  UNL1        0.1233
      2 C         141.1751  138.9885  161.4593 C.ar    1  UNL1        0.1180
      3 N         140.9495  140.1862  162.3337 N.ar    1  UNL1       -0.2233
      4 N         140.6263  141.3526  161.4477 N.ar    1  UNL1       -0.0634
      5 N         140.6521  140.8758  160.0257 N.ar    1  UNL1       -0.1287
      6 C         141.0326  140.2129  163.8312 C.3     1  UNL1        0.1834
      7 C         142.3681  140.5875  164.4023 C.3     1  UNL1        0.0386
      8 C         142.7699  140.7032  165.8429 C.3     1  UNL1        0.0301
      9 C         141.9356  140.4728  167.0680 C.ar    1  UNL1       -0.0084
     10 C         142.7287  140.6974  168.3213 C.ar    1  UNL1       -0.0030
     11 C         142.0795  140.5190  169.6616 C.ar    1  UNL1       -0.0002
     12 C         140.6372  140.1160  169.7488 C.ar    1  UNL1        0.0013
     13 C         139.8442  139.8914  168.4956 C.ar    1  UNL1        0.0146
     14 C         140.4934  140.0698  167.1552 C.ar    1  UNL1        0.0500
     15 N         139.5293  139.7977  166.0387 N.am    1  UNL1       -0.2545
     16 C         139.7692  139.8614  164.5594 C.2     1  UNL1        0.2518
     17 O         138.5899  139.5297  163.6939 O.2     1  UNL1       -0.2724
     18 C         138.1417  139.4107  166.4569 C.3     1  UNL1        0.1363
     19 C         137.7802  137.9628  166.6080 C.3     1  UNL1        0.2150
     20 F         138.4426  136.9303  165.7448 F       1  UNL1       -0.2324
     21 C         140.0426  137.3051  156.8081 C.ar    1  UNL1        0.1547
     22 C         139.9104  138.1855  158.0153 C.ar    1  UNL1        0.0400
     23 C         141.1235  138.5342  158.8257 C.ar    1  UNL1        0.0241
     24 C         142.4688  138.0025  158.4289 C.ar    1  UNL1        0.0033
     25 C         142.6010  137.1221  157.2217 C.ar    1  UNL1        0.0207
     26 C         141.3879  136.7734  156.4113 C.ar    1  UNL1        0.0994
     27 N         141.5201  135.8929  155.2041 N.ar    1  UNL1       -0.2839
     28 C         141.7380  136.3565  153.7942 C.ar    1  UNL1        0.1826
     29 N         141.8102  135.1444  152.9137 N.ar    1  UNL1       -0.2280
     30 C         141.6370  133.9317  153.7791 C.ar    1  UNL1        0.0786
     31 C         141.6421  132.5065  153.3113 C.3     1  UNL1        0.0538
     32 C         141.4577  134.3942  155.1947 C.ar    1  UNL1        0.0963
     33 C         138.4363  137.8117  154.8300 C.3     1  UNL1        0.2525
     34 O         138.8295  136.9563  155.9977 O.3     1  UNL1       -0.4700
@<TRIPOS>BOND
     1    33    34    1
     2    34    21    1
     3    21    22   ar
     4    22    23   ar
     5    23     1    1
     6     1     2   ar
     7     2     3   ar
     8     3     6    1
     9     6     7    1
    10     7     8    1
    11     8     9    1
    12     9    10   ar
    13    10    11   ar
    14    11    12   ar
    15    12    13   ar
    16    13    14   ar
    17    14    15    1
    18    15    18    1
    19    18    19    1
    20    19    20    1
    21    15    16   am
    22    16    17    2
    23     3     4   ar
    24     4     5   ar
    25    23    24   ar
    26    24    25   ar
    27    25    26   ar
    28    26    27    1
    29    27    28   ar
    30    28    29   ar
    31    29    30   ar
    32    30    31    1
    33    30    32   ar
    34    26    21   ar
    35    32    27   ar
    36     5     1   ar
    37    16     6    1
    38    14     9   ar
@<TRIPOS>MOLECULE
*****
 34 38 0 0 0
SMALL
GASTEIGER

@<TRIPOS>ATOM
      1 C         143.1368  138.4669  159.8626 C.ar    1  UNL1        0.1233
      2 C         142.5643  137.2642  159.1727 C.ar    1  UNL1        0.1180
      3 N         142.8426  137.3956  157.7047 N.ar    1  UNL1       -0.2233
      4 N         143.5871  138.6795  157.4872 N.ar    1  UNL1       -0.0634
      5 N         143.7689  139.3416  158.8209 N.ar    1  UNL1       -0.1287
      6 C         142.4461  136.4153  156.6409 C.3     1  UNL1        0.1834
      7 C         141.7409  136.9958  155.4510 C.3     1  UNL1        0.0386
      8 C         141.2227  136.2884  154.2340 C.3     1  UNL1        0.0301
      9 C         141.2816  134.8259  153.9063 C.ar    1  UNL1       -0.0084
     10 C         140.6424  134.5351  152.5808 C.ar    1  UNL1       -0.0030
     11 C         140.5948  133.1279  152.0637 C.ar    1  UNL1       -0.0002
     12 C         141.1865  132.0114  152.8721 C.ar    1  UNL1        0.0013
     13 C         141.8258  132.3022  154.1975 C.ar    1  UNL1        0.0146
     14 C         141.8733  133.7094  154.7146 C.ar    1  UNL1        0.0500
     15 N         142.5523  133.7798  156.0503 N.am    1  UNL1       -0.2545
     16 C         142.8072  134.9840  156.9076 C.2     1  UNL1        0.2518
     17 O         143.5170  134.7223  158.2028 O.2     1  UNL1       -0.2724
     18 C         143.0409  132.4732  156.6016 C.3     1  UNL1        0.1363
     19 C         144.4871  132.0973  156.4699 C.3     1  UNL1        0.2150
     20 F         144.9226  131.1614  155.3816 F       1  UNL1       -0.2324
     21 C         144.1651  139.7536  163.4732 C.ar    1  UNL1        0.1547
     22 C         144.2160  139.4747  162.0003 C.ar    1  UNL1        0.0400
     23 C         143.0860  138.7458  161.3356 C.ar    1  UNL1        0.0241
     24 C         141.9052  138.2958  162.1438 C.ar    1  UNL1        0.0033
     25 C         141.8544  138.5747  163.6167 C.ar    1  UNL1        0.0207
     26 C         142.9844  139.3036  164.2814 C.ar    1  UNL1        0.0994
     27 N         142.9335  139.5825  165.7545 N.ar    1  UNL1       -0.2839
     28 C         143.1662  138.5841  166.8494 C.ar    1  UNL1        0.1826
     29 N         143.0176  139.2933  168.1627 N.ar    1  UNL1       -0.2280
     30 C         142.6930  140.7301  167.8795 C.ar    1  UNL1        0.0786
     31 C         142.4611  141.8003  168.9046 C.3     1  UNL1        0.0538
     32 C         142.6411  140.9088  166.3911 C.ar    1  UNL1        0.0963
     33 C         145.4709  141.9555  163.9161 C.3     1  UNL1        0.2525
     34 O         145.2951  140.4825  164.1379 O.3     1  UNL1       -0.4700
@<TRIPOS>BOND
     1    33    34    1
     2    34    21    1
     3    21    22   ar
     4    22    23   ar
     5    23     1    1
     6     1     2   ar
     7     2     3   ar
     8     3     6    1
     9     6     7    1
    10     7     8    1
    11     8     9    1
    12     9    10   ar
    13    10    11   ar
    14    11    12   ar
    15    12    13   ar
    16    13    14   ar
    17    14    15    1
    18    15    18    1
    19    18    19    1
    20    19    20    1
    21    15    16   am
    22    16    17    2
    23     3     4   ar
    24     4     5   ar
    25    23    24   ar
    26    24    25   ar
    27    25    26   ar
    28    26    27    1
    29    27    28   ar
    30    28    29   ar
    31    29    30   ar
    32    30    31    1
    33    30    32   ar
    34    26    21   ar
    35    32    27   ar
    36     5     1   ar
    37    16     6    1
    38    14     9   ar
@<TRIPOS>MOLECULE
*****
 34 38 0 0 0
SMALL
GASTEIGER

@<TRIPOS>ATOM
      1 C         142.2703  138.8361  157.9919 C.ar    1  UNL1        0.1233
      2 C         141.7621  137.5410  157.4312 C.ar    1  UNL1        0.1180
      3 N         142.8029  137.0006  156.4959 N.ar    1  UNL1       -0.2233
      4 N         143.9543  137.9618  156.4786 N.ar    1  UNL1       -0.0634
      5 N         143.6252  139.0962  157.4031 N.ar    1  UNL1       -0.1287
      6 C         142.7087  135.7233  155.7151 C.3     1  UNL1        0.1834
      7 C         142.1806  135.8527  154.3170 C.3     1  UNL1        0.0386
      8 C         141.9685  134.7762  153.2942 C.3     1  UNL1        0.0301
      9 C         142.2320  133.3046  153.4167 C.ar    1  UNL1       -0.0084
     10 C         141.8801  132.5777  152.1527 C.ar    1  UNL1       -0.0030
     11 C         142.0689  131.0923  152.0643 C.ar    1  UNL1       -0.0002
     12 C         142.6096  130.3337  153.2399 C.ar    1  UNL1        0.0013
     13 C         142.9615  131.0606  154.5040 C.ar    1  UNL1        0.0146
     14 C         142.7727  132.5460  154.5924 C.ar    1  UNL1        0.0500
     15 N         143.1835  133.0717  155.9359 N.am    1  UNL1       -0.2545
     16 C         143.1550  134.4857  156.4356 C.2     1  UNL1        0.2518
     17 O         143.6365  134.6890  157.8415 O.2     1  UNL1       -0.2724
     18 C         143.6897  132.0479  156.9083 C.3     1  UNL1        0.1363
     19 C         145.1657  131.8534  157.0923 C.3     1  UNL1        0.2150
     20 F         145.8371  132.3452  158.3402 F       1  UNL1       -0.2324
     21 C         139.9544  139.9876  161.0019 C.ar    1  UNL1        0.1547
     22 C         140.6746  139.1071  160.0242 C.ar    1  UNL1        0.0400
     23 C         141.5501  139.7166  158.9697 C.ar    1  UNL1        0.0241
     24 C         141.7055  141.2065  158.8930 C.ar    1  UNL1        0.0033
     25 C         140.9852  142.0870  159.8708 C.ar    1  UNL1        0.0207
     26 C         140.1098  141.4775  160.9252 C.ar    1  UNL1        0.0994
     27 N         139.3895  142.3581  161.9030 N.ar    1  UNL1       -0.2839
     28 C         137.9601  142.8017  161.8033 C.ar    1  UNL1        0.1826
     29 N         137.6595  143.6673  162.9908 N.ar    1  UNL1       -0.2280
     30 C         138.9031  143.7588  163.8245 C.ar    1  UNL1        0.0786
     31 C         139.0515  144.5248  165.1055 C.3     1  UNL1        0.0538
     32 C         139.9724  142.9496  163.1522 C.ar    1  UNL1        0.0963
     33 C         138.0504  138.3541  161.6775 C.3     1  UNL1        0.2525
     34 O         139.0789  139.3781  162.0565 O.3     1  UNL1       -0.4700
@<TRIPOS>BOND
     1    33    34    1
     2    34    21    1
     3    21    22   ar
     4    22    23   ar
     5    23     1    1
     6     1     2   ar
     7     2     3   ar
     8     3     6    1
     9     6     7    1
    10     7     8    1
    11     8     9    1
    12     9    10   ar
    13    10    11   ar
    14    11    12   ar
    15    12    13   ar
    16    13    14   ar
    17    14    15    1
    18    15    18    1
    19    18    19    1
    20    19    20    1
    21    15    16   am
    22    16    17    2
    23     3     4   ar
    24     4     5   ar
    25    23    24   ar
    26    24    25   ar
    27    25    26   ar
    28    26    27    1
    29    27    28   ar
    30    28    29   ar
    31    29    30   ar
    32    30    31    1
    33    30    32   ar
    34    26    21   ar
    35    32    27   ar
    36     5     1   ar
    37    16     6    1
    38    14     9   ar
@<TRIPOS>MOLECULE
*****
 34 38 0 0 0
SMALL
GASTEIGER

@<TRIPOS>ATOM
      1 C         142.8322  138.1266  159.3162 C.ar    1  UNL1        0.1233
      2 C         142.2749  137.9569  160.6985 C.ar    1  UNL1        0.1180
      3 N         142.8143  139.0640  161.5549 N.ar    1  UNL1       -0.2233
      4 N         143.7050  139.9179  160.7019 N.ar    1  UNL1       -0.0634
      5 N         143.7161  139.3385  159.3183 N.ar    1  UNL1       -0.1287
      6 C         142.5155  139.2794  163.0089 C.3     1  UNL1        0.1834
      7 C         143.5275  138.7293  163.9698 C.3     1  UNL1        0.0386
      8 C         143.5181  138.7804  165.4689 C.3     1  UNL1        0.0301
      9 C         142.4944  139.3941  166.3774 C.ar    1  UNL1       -0.0084
     10 C         142.8692  139.2236  167.8197 C.ar    1  UNL1       -0.0030
     11 C         141.9768  139.7672  168.8958 C.ar    1  UNL1       -0.0002
     12 C         140.7097  140.4815  168.5296 C.ar    1  UNL1        0.0013
     13 C         140.3349  140.6521  167.0873 C.ar    1  UNL1        0.0146
     14 C         141.2272  140.1084  166.0112 C.ar    1  UNL1        0.0500
     15 N         140.6709  140.3853  164.6460 N.am    1  UNL1       -0.2545
     16 C         141.2441  140.0164  163.3098 C.2     1  UNL1        0.2518
     17 O         140.4397  140.4405  162.1169 O.2     1  UNL1       -0.2724
     18 C         139.3689  141.1296  164.6125 C.3     1  UNL1        0.1363
     19 C         138.0745  140.3742  164.5504 C.3     1  UNL1        0.2150
     20 F         137.6473  139.5218  165.7083 F       1  UNL1       -0.2324
     21 C         143.0559  135.0849  156.7769 C.ar    1  UNL1        0.1547
     22 C         143.3337  135.9715  157.9545 C.ar    1  UNL1        0.0400
     23 C         142.5545  137.2399  158.1386 C.ar    1  UNL1        0.0241
     24 C         141.4975  137.6217  157.1452 C.ar    1  UNL1        0.0033
     25 C         141.2197  136.7351  155.9676 C.ar    1  UNL1        0.0207
     26 C         141.9989  135.4667  155.7835 C.ar    1  UNL1        0.0994
     27 N         141.7211  134.5801  154.6058 N.ar    1  UNL1       -0.2839
     28 C         141.8832  134.9547  153.1624 C.ar    1  UNL1        0.1826
     29 N         141.4947  133.7693  152.3295 N.ar    1  UNL1       -0.2280
     30 C         141.0925  132.6621  153.2580 C.ar    1  UNL1        0.0786
     31 C         140.6313  131.2940  152.8511 C.3     1  UNL1        0.0538
     32 C         141.2324  133.1631  154.6649 C.ar    1  UNL1        0.0963
     33 C         144.4206  133.1164  157.7832 C.3     1  UNL1        0.2525
     34 O         143.8352  133.8165  156.5928 O.3     1  UNL1       -0.4700
@<TRIPOS>BOND
     1    33    34    1
     2    34    21    1
     3    21    22   ar
     4    22    23   ar
     5    23     1    1
     6     1     2   ar
     7     2     3   ar
     8     3     6    1
     9     6     7    1
    10     7     8    1
    11     8     9    1
    12     9    10   ar
    13    10    11   ar
    14    11    12   ar
    15    12    13   ar
    16    13    14   ar
    17    14    15    1
    18    15    18    1
    19    18    19    1
    20    19    20    1
    21    15    16   am
    22    16    17    2
    23     3     4   ar
    24     4     5   ar
    25    23    24   ar
    26    24    25   ar
    27    25    26   ar
    28    26    27    1
    29    27    28   ar
    30    28    29   ar
    31    29    30   ar
    32    30    31    1
    33    30    32   ar
    34    26    21   ar
    35    32    27   ar
    36     5     1   ar
    37    16     6    1
    38    14     9   ar
@<TRIPOS>MOLECULE
*****
 34 38 0 0 0
SMALL
GASTEIGER

@<TRIPOS>ATOM
      1 C         143.1308  138.4249  160.1205 C.ar    1  UNL1        0.1233
      2 C         142.6664  137.2370  159.3310 C.ar    1  UNL1        0.1180
      3 N         142.9408  137.5079  157.8814 N.ar    1  UNL1       -0.2233
      4 N         143.5747  138.8632  157.7750 N.ar    1  UNL1       -0.0634
      5 N         143.6921  139.4299  159.1588 N.ar    1  UNL1       -0.1287
      6 C         142.6349  136.5854  156.7388 C.3     1  UNL1        0.1834
      7 C         143.3390  135.2611  156.7651 C.3     1  UNL1        0.0386
      8 C         143.2474  134.1337  155.7800 C.3     1  UNL1        0.0301
      9 C         142.4293  134.0518  154.5254 C.ar    1  UNL1       -0.0084
     10 C         142.6287  132.7402  153.8256 C.ar    1  UNL1       -0.0030
     11 C         141.8995  132.4542  152.5464 C.ar    1  UNL1       -0.0002
     12 C         140.9709  133.4798  151.9670 C.ar    1  UNL1        0.0013
     13 C         140.7714  134.7914  152.6668 C.ar    1  UNL1        0.0146
     14 C         141.5006  135.0774  153.9460 C.ar    1  UNL1        0.0500
     15 N         141.1607  136.4381  154.4781 N.am    1  UNL1       -0.2545
     16 C         141.6655  137.1093  155.7210 C.2     1  UNL1        0.2518
     17 O         141.1302  138.4862  155.9804 O.2     1  UNL1       -0.2724
     18 C         140.1873  137.2327  153.6590 C.3     1  UNL1        0.1363
     19 C         138.7569  137.3471  154.0961 C.3     1  UNL1        0.2150
     20 F         138.3477  136.8656  155.4566 F       1  UNL1       -0.2324
     21 C         141.9216  137.9887  163.8751 C.ar    1  UNL1        0.1547
     22 C         142.0040  137.8332  162.3855 C.ar    1  UNL1        0.0400
     23 C         143.0483  138.5804  161.6101 C.ar    1  UNL1        0.0241
     24 C         144.0100  139.4832  162.3243 C.ar    1  UNL1        0.0033
     25 C         143.9274  139.6387  163.8140 C.ar    1  UNL1        0.0207
     26 C         142.8833  138.8915  164.5893 C.ar    1  UNL1        0.0994
     27 N         142.8008  139.0470  166.0790 N.ar    1  UNL1       -0.2839
     28 C         143.5814  138.2631  167.0920 C.ar    1  UNL1        0.1826
     29 N         143.1862  138.7454  168.4561 N.ar    1  UNL1       -0.2280
     30 C         142.1614  139.8274  168.2864 C.ar    1  UNL1        0.0786
     31 C         141.4923  140.5893  169.3918 C.3     1  UNL1        0.0538
     32 C         141.9232  140.0139  166.8173 C.ar    1  UNL1        0.0963
     33 C         139.5169  137.8417  164.8477 C.3     1  UNL1        0.2525
     34 O         140.8773  137.2415  164.6505 O.3     1  UNL1       -0.4700
@<TRIPOS>BOND
     1    33    34    1
     2    34    21    1
     3    21    22   ar
     4    22    23   ar
     5    23     1    1
     6     1     2   ar
     7     2     3   ar
     8     3     6    1
     9     6     7    1
    10     7     8    1
    11     8     9    1
    12     9    10   ar
    13    10    11   ar
    14    11    12   ar
    15    12    13   ar
    16    13    14   ar
    17    14    15    1
    18    15    18    1
    19    18    19    1
    20    19    20    1
    21    15    16   am
    22    16    17    2
    23     3     4   ar
    24     4     5   ar
    25    23    24   ar
    26    24    25   ar
    27    25    26   ar
    28    26    27    1
    29    27    28   ar
    30    28    29   ar
    31    29    30   ar
    32    30    31    1
    33    30    32   ar
    34    26    21   ar
    35    32    27   ar
    36     5     1   ar
    37    16     6    1
    38    14     9   ar
@<TRIPOS>MOLECULE
*****
 34 38 0 0 0
SMALL
GASTEIGER

@<TRIPOS>ATOM
      1 C         140.5702  144.4271  162.4957 C.ar    1  UNL1        0.1233
      2 C         140.9146  143.9568  161.1135 C.ar    1  UNL1        0.1180
      3 N         140.3146  144.9204  160.1330 N.ar    1  UNL1       -0.2233
      4 N         139.5994  145.9863  160.9092 N.ar    1  UNL1       -0.0634
      5 N         139.7573  145.6814  162.3694 N.ar    1  UNL1       -0.1287
      6 C         140.4126  144.8335  158.6388 C.3     1  UNL1        0.1834
      7 C         141.4266  145.7353  157.9995 C.3     1  UNL1        0.0386
      8 C         141.7620  145.8825  156.5450 C.3     1  UNL1        0.0301
      9 C         141.1664  145.1645  155.3704 C.ar    1  UNL1       -0.0084
     10 C         141.7904  145.6106  154.0814 C.ar    1  UNL1       -0.0030
     11 C         141.3361  145.0139  152.7823 C.ar    1  UNL1       -0.0002
     12 C         140.2579  143.9712  152.7722 C.ar    1  UNL1        0.0013
     13 C         139.6339  143.5251  154.0612 C.ar    1  UNL1        0.0146
     14 C         140.0882  144.1217  155.3603 C.ar    1  UNL1        0.0500
     15 N         139.3393  143.5396  156.5223 N.am    1  UNL1       -0.2545
     16 C         139.4836  143.8563  157.9814 C.2     1  UNL1        0.2518
     17 O         138.5795  143.0953  158.9052 O.2     1  UNL1       -0.2724
     18 C         138.3099  142.5037  156.1800 C.3     1  UNL1        0.1363
     19 C         136.9016  142.9187  155.8721 C.3     1  UNL1        0.2150
     20 F         136.6176  144.3124  155.3959 F       1  UNL1       -0.2324
     21 C         142.7411  142.5094  165.2084 C.ar    1  UNL1        0.1547
     22 C         142.3427  143.1763  163.9254 C.ar    1  UNL1        0.0400
     23 C         140.9687  143.7601  163.7788 C.ar    1  UNL1        0.0241
     24 C         139.9933  143.6770  164.9152 C.ar    1  UNL1        0.0033
     25 C         140.3919  143.0100  166.1983 C.ar    1  UNL1        0.0207
     26 C         141.7657  142.4262  166.3449 C.ar    1  UNL1        0.0994
     27 N         142.1642  141.7592  167.6281 N.ar    1  UNL1       -0.2839
     28 C         142.7703  142.4354  168.8221 C.ar    1  UNL1        0.1826
     29 N         143.0072  141.3930  169.8743 N.ar    1  UNL1       -0.2280
     30 C         142.5476  140.0727  169.3308 C.ar    1  UNL1        0.0786
     31 C         142.5998  138.7571  170.0493 C.3     1  UNL1        0.0538
     32 C         142.0266  140.2990  167.9425 C.ar    1  UNL1        0.0963
     33 C         145.1369  142.1324  164.2766 C.3     1  UNL1        0.2525
     34 O         144.1151  141.9255  165.3550 O.3     1  UNL1       -0.4700
@<TRIPOS>BOND
     1    33    34    1
     2    34    21    1
     3    21    22   ar
     4    22    23   ar
     5    23     1    1
     6     1     2   ar
     7     2     3   ar
     8     3     6    1
     9     6     7    1
    10     7     8    1
    11     8     9    1
    12     9    10   ar
    13    10    11   ar
    14    11    12   ar
    15    12    13   ar
    16    13    14   ar
    17    14    15    1
    18    15    18    1
    19    18    19    1
    20    19    20    1
    21    15    16   am
    22    16    17    2
    23     3     4   ar
    24     4     5   ar
    25    23    24   ar
    26    24    25   ar
    27    25    26   ar
    28    26    27    1
    29    27    28   ar
    30    28    29   ar
    31    29    30   ar
    32    30    31    1
    33    30    32   ar
    34    26    21   ar
    35    32    27   ar
    36     5     1   ar
    37    16     6    1
    38    14     9   ar
@<TRIPOS>MOLECULE
*****
 34 38 0 0 0
SMALL
GASTEIGER

@<TRIPOS>ATOM
      1 C         139.3847  142.9563  161.3454 C.ar    1  UNL1        0.1233
      2 C         140.3144  142.9373  162.5224 C.ar    1  UNL1        0.1180
      3 N         139.6616  142.1451  163.6161 N.ar    1  UNL1       -0.2233
      4 N         138.3283  141.6745  163.1150 N.ar    1  UNL1       -0.0634
      5 N         138.1572  142.1759  161.7117 N.ar    1  UNL1       -0.1287
      6 C         140.2403  141.8715  164.9726 C.3     1  UNL1        0.1834
      7 C         139.9580  142.9062  166.0214 C.3     1  UNL1        0.0386
      8 C         140.3905  142.9242  167.4575 C.3     1  UNL1        0.0301
      9 C         141.2121  141.9122  168.1997 C.ar    1  UNL1       -0.0084
     10 C         141.4173  142.3154  169.6299 C.ar    1  UNL1       -0.0030
     11 C         142.2145  141.4384  170.5493 C.ar    1  UNL1       -0.0002
     12 C         142.8065  140.1582  170.0385 C.ar    1  UNL1        0.0013
     13 C         142.6013  139.7551  168.6084 C.ar    1  UNL1        0.0146
     14 C         141.8041  140.6321  167.6890 C.ar    1  UNL1        0.0500
     15 N         141.7207  140.0479  166.3099 N.am    1  UNL1       -0.2545
     16 C         141.0248  140.5994  165.1010 C.2     1  UNL1        0.2518
     17 O         141.1268  139.7692  163.8560 O.2     1  UNL1       -0.2724
     18 C         142.4266  138.7390  166.1139 C.3     1  UNL1        0.1363
     19 C         143.7595  138.7012  165.4267 C.3     1  UNL1        0.2150
     20 F         144.4196  139.9786  164.9996 F       1  UNL1       -0.2324
     21 C         139.3280  143.7394  157.4553 C.ar    1  UNL1        0.1547
     22 C         139.0746  143.0593  158.7679 C.ar    1  UNL1        0.0400
     23 C         139.6380  143.6364  160.0327 C.ar    1  UNL1        0.0241
     24 C         140.4547  144.8937  159.9847 C.ar    1  UNL1        0.0033
     25 C         140.7081  145.5737  158.6719 C.ar    1  UNL1        0.0207
     26 C         140.1447  144.9967  157.4073 C.ar    1  UNL1        0.0994
     27 N         140.3980  145.6768  156.0945 N.ar    1  UNL1       -0.2839
     28 C         141.2514  145.1504  154.9789 C.ar    1  UNL1        0.1826
     29 N         141.2233  146.1510  153.8619 N.ar    1  UNL1       -0.2280
     30 C         140.3525  147.2959  154.2870 C.ar    1  UNL1        0.0786
     31 C         140.0456  148.5192  153.4750 C.3     1  UNL1        0.0538
     32 C         139.8424  147.0029  155.6669 C.ar    1  UNL1        0.0963
     33 C         137.4340  143.6305  155.6801 C.3     1  UNL1        0.2525
     34 O         138.7645  143.1623  156.1906 O.3     1  UNL1       -0.4700
@<TRIPOS>BOND
     1    33    34    1
     2    34    21    1
     3    21    22   ar
     4    22    23   ar
     5    23     1    1
     6     1     2   ar
     7     2     3   ar
     8     3     6    1
     9     6     7    1
    10     7     8    1
    11     8     9    1
    12     9    10   ar
    13    10    11   ar
    14    11    12   ar
    15    12    13   ar
    16    13    14   ar
    17    14    15    1
    18    15    18    1
    19    18    19    1
    20    19    20    1
    21    15    16   am
    22    16    17    2
    23     3     4   ar
    24     4     5   ar
    25    23    24   ar
    26    24    25   ar
    27    25    26   ar
    28    26    27    1
    29    27    28   ar
    30    28    29   ar
    31    29    30   ar
    32    30    31    1
    33    30    32   ar
    34    26    21   ar
    35    32    27   ar
    36     5     1   ar
    37    16     6    1
    38    14     9   ar
@<TRIPOS>MOLECULE
*****
 34 38 0 0 0
SMALL
GASTEIGER

@<TRIPOS>ATOM
      1 C         142.8086  137.3686  157.4542 C.ar    1  UNL1        0.1233
      2 C         142.1992  137.8152  158.7500 C.ar    1  UNL1        0.1180
      3 N         142.6991  139.1984  159.0450 N.ar    1  UNL1       -0.2233
      4 N         143.6175  139.6065  157.9314 N.ar    1  UNL1       -0.0634
      5 N         143.6852  138.4757  156.9483 N.ar    1  UNL1       -0.1287
      6 C         142.3432  140.0277  160.2431 C.3     1  UNL1        0.1834
      7 C         141.1331  140.9015  160.0935 C.3     1  UNL1        0.0386
      8 C         140.5255  141.8370  161.0963 C.3     1  UNL1        0.0301
      9 C         140.9776  142.1298  162.4963 C.ar    1  UNL1       -0.0084
     10 C         140.0836  143.1332  163.1624 C.ar    1  UNL1       -0.0030
     11 C         140.3611  143.5662  164.5714 C.ar    1  UNL1       -0.0002
     12 C         141.5327  142.9957  165.3144 C.ar    1  UNL1        0.0013
     13 C         142.4267  141.9923  164.6483 C.ar    1  UNL1        0.0146
     14 C         142.1492  141.5593  163.2392 C.ar    1  UNL1        0.0500
     15 N         143.1580  140.5552  162.7657 N.am    1  UNL1       -0.2545
     16 C         143.2443  139.8736  161.4323 C.2     1  UNL1        0.2518
     17 O         144.3822  138.9105  161.2662 O.2     1  UNL1       -0.2724
     18 C         144.2210  140.1836  163.7566 C.3     1  UNL1        0.1363
     19 C         145.4829  140.9902  163.8408 C.3     1  UNL1        0.2150
     20 F         145.8728  141.8932  162.7083 F       1  UNL1       -0.2324
     21 C         143.0518  133.4973  156.6156 C.ar    1  UNL1        0.1547
     22 C         143.2791  134.8189  157.2875 C.ar    1  UNL1        0.0400
     23 C         142.5813  136.0469  156.7823 C.ar    1  UNL1        0.0241
     24 C         141.6563  135.9532  155.6053 C.ar    1  UNL1        0.0033
     25 C         141.4290  134.6315  154.9334 C.ar    1  UNL1        0.0207
     26 C         142.1268  133.4035  155.4385 C.ar    1  UNL1        0.0994
     27 N         141.8994  132.0818  154.7665 N.ar    1  UNL1       -0.2839
     28 C         142.8513  131.3905  153.8359 C.ar    1  UNL1        0.1826
     29 N         142.2205  130.1009  153.4016 N.ar    1  UNL1       -0.2280
     30 C         140.8787  129.9950  154.0636 C.ar    1  UNL1        0.0786
     31 C         139.9061  128.8636  153.9092 C.3     1  UNL1        0.0538
     32 C         140.6803  131.2193  154.9073 C.ar    1  UNL1        0.0963
     33 C         145.0364  132.3970  157.8809 C.3     1  UNL1        0.2525
     34 O         143.7496  132.2693  157.1207 O.3     1  UNL1       -0.4700
@<TRIPOS>BOND
     1    33    34    1
     2    34    21    1
     3    21    22   ar
     4    22    23   ar
     5    23     1    1
     6     1     2   ar
     7     2     3   ar
     8     3     6    1
     9     6     7    1
    10     7     8    1
    11     8     9    1
    12     9    10   ar
    13    10    11   ar
    14    11    12   ar
    15    12    13   ar
    16    13    14   ar
    17    14    15    1
    18    15    18    1
    19    18    19    1
    20    19    20    1
    21    15    16   am
    22    16    17    2
    23     3     4   ar
    24     4     5   ar
    25    23    24   ar
    26    24    25   ar
    27    25    26   ar
    28    26    27    1
    29    27    28   ar
    30    28    29   ar
    31    29    30   ar
    32    30    31    1
    33    30    32   ar
    34    26    21   ar
    35    32    27   ar
    36     5     1   ar
    37    16     6    1
    38    14     9   ar
@<TRIPOS>MOLECULE
*****
 34 38 0 0 0
SMALL
GASTEIGER

@<TRIPOS>ATOM
      1 C         143.3913  139.7062  160.2854 C.ar    1  UNL1        0.1233
      2 C         143.0926  140.3034  161.6286 C.ar    1  UNL1        0.1180
      3 N         142.6082  139.2044  162.5273 N.ar    1  UNL1       -0.2233
      4 N         142.6076  137.9279  161.7395 N.ar    1  UNL1       -0.0634
      5 N         143.0915  138.2380  160.3539 N.ar    1  UNL1       -0.1287
      6 C         142.1968  139.3553  163.9618 C.3     1  UNL1        0.1834
      7 C         143.2687  139.0916  164.9775 C.3     1  UNL1        0.0386
      8 C         143.1763  139.1575  166.4732 C.3     1  UNL1        0.0301
      9 C         141.9894  139.5033  167.3227 C.ar    1  UNL1       -0.0084
     10 C         142.3270  139.4513  168.7832 C.ar    1  UNL1       -0.0030
     11 C         141.2767  139.7647  169.8073 C.ar    1  UNL1       -0.0002
     12 C         139.8889  140.1301  169.3708 C.ar    1  UNL1        0.0013
     13 C         139.5514  140.1821  167.9103 C.ar    1  UNL1        0.0146
     14 C         140.6016  139.8687  166.8862 C.ar    1  UNL1        0.0500
     15 N         140.0580  139.9785  165.4924 N.am    1  UNL1       -0.2545
     16 C         140.7679  139.7500  164.1910 C.2     1  UNL1        0.2518
     17 O         139.9394  139.9416  162.9553 O.2     1  UNL1       -0.2724
     18 C         138.6134  140.3683  165.3861 C.3     1  UNL1        0.1363
     19 C         138.2399  141.7391  164.9050 C.3     1  UNL1        0.2150
     20 F         139.1462  142.9026  165.1782 F       1  UNL1       -0.2324
     21 C         144.3872  140.5340  156.5341 C.ar    1  UNL1        0.1547
     22 C         143.8781  139.7931  157.7348 C.ar    1  UNL1        0.0400
     23 C         143.9003  140.4470  159.0846 C.ar    1  UNL1        0.0241
     24 C         144.4317  141.8418  159.2336 C.ar    1  UNL1        0.0033
     25 C         144.9407  142.5827  158.0328 C.ar    1  UNL1        0.0207
     26 C         144.9185  141.9288  156.6831 C.ar    1  UNL1        0.0994
     27 N         145.4276  142.6697  155.4822 N.ar    1  UNL1       -0.2839
     28 C         144.5853  143.3179  154.4237 C.ar    1  UNL1        0.1826
     29 N         145.5055  143.9413  153.4165 N.ar    1  UNL1       -0.2280
     30 C         146.9164  143.6785  153.8525 C.ar    1  UNL1        0.0786
     31 C         148.1577  144.1234  153.1373 C.3     1  UNL1        0.0538
     32 C         146.8683  142.8926  155.1292 C.ar    1  UNL1        0.0963
     33 C         144.7378  138.4338  155.0454 C.3     1  UNL1        0.2525
     34 O         144.3649  139.8801  155.1843 O.3     1  UNL1       -0.4700
@<TRIPOS>BOND
     1    33    34    1
     2    34    21    1
     3    21    22   ar
     4    22    23   ar
     5    23     1    1
     6     1     2   ar
     7     2     3   ar
     8     3     6    1
     9     6     7    1
    10     7     8    1
    11     8     9    1
    12     9    10   ar
    13    10    11   ar
    14    11    12   ar
    15    12    13   ar
    16    13    14   ar
    17    14    15    1
    18    15    18    1
    19    18    19    1
    20    19    20    1
    21    15    16   am
    22    16    17    2
    23     3     4   ar
    24     4     5   ar
    25    23    24   ar
    26    24    25   ar
    27    25    26   ar
    28    26    27    1
    29    27    28   ar
    30    28    29   ar
    31    29    30   ar
    32    30    31    1
    33    30    32   ar
    34    26    21   ar
    35    32    27   ar
    36     5     1   ar
    37    16     6    1
    38    14     9   ar
