@<TRIPOS>MOLECULE
*****
 32 36 0 0 0
SMALL
GASTEIGER

@<TRIPOS>ATOM
      1 C         143.2722  142.5239  166.6082 C.ar    1  UNL1        0.2221
      2 N         143.5543  142.5141  168.0813 N.ar    1  UNL1       -0.2104
      3 C         142.6196  141.8095  169.0194 C.ar    1  UNL1        0.1221
      4 C         141.4028  141.1146  168.4841 C.ar    1  UNL1        0.1176
      5 C         141.1207  141.1244  167.0108 C.ar    1  UNL1        0.1676
      6 N         142.0553  141.8290  166.0729 N.ar    1  UNL1       -0.1945
      7 N         139.8521  140.3589  166.7768 N.ar    1  UNL1       -0.2668
      8 C         139.3502  139.8761  168.1053 C.ar    1  UNL1        0.3327
      9 O         138.1080  139.0681  168.3378 O.2     1  UNL1       -0.2462
     10 N         140.3086  140.3431  169.1605 N.ar    1  UNL1       -0.2751
     11 C         140.1930  140.0841  170.6334 C.3     1  UNL1        0.1352
     12 C         139.1999  140.1185  165.4476 C.3     1  UNL1        0.0914
     13 C         138.3669  141.1940  164.8154 C.3     1  UNL1        0.0252
     14 C         137.7147  140.9536  163.4862 C.3     1  UNL1        0.0288
     15 C         137.8956  139.6377  162.7891 C.3     1  UNL1        0.0885
     16 C         137.7722  138.5662  161.7467 C.3     1  UNL1        0.0293
     17 O         137.0197  140.3410  161.7949 O.3     1  UNL1       -0.3867
     18 C         138.7286  138.5623  163.4212 C.3     1  UNL1        0.0288
     19 C         139.3807  138.8027  164.7505 C.3     1  UNL1        0.0252
     20 H         136.8131  141.2316  162.1190 H       1  UNL1        0.2102
     21 N         144.2069  143.2286  165.6702 N.pl3   1  UNL1       -0.2815
     22 H         145.0477  143.6123  166.0093 H       1  UNL1        0.1551
     23 C         145.7985  141.7241  163.6201 C.3     1  UNL1        0.0325
     24 C         144.6562  142.5964  163.1906 C.ar    1  UNL1       -0.0038
     25 C         144.3098  142.7164  161.7361 C.ar    1  UNL1        0.0359
     26 C         143.1676  143.5887  161.3067 C.ar    1  UNL1        0.1654
     27 N         142.5961  143.9011  159.9555 N.ar    1  UNL1       -0.2034
     28 C         141.4471  144.8464  160.1455 C.ar    1  UNL1        0.2213
     29 N         141.3084  145.1183  161.6142 N.ar    1  UNL1       -0.1409
     30 N         142.3718  144.3409  162.3318 N.ar    1  UNL1       -0.2080
     31 C         142.7182  144.2209  163.7863 C.ar    1  UNL1        0.1164
     32 C         143.8605  143.3486  164.2157 C.ar    1  UNL1        0.0660
@<TRIPOS>BOND
     1    23    24    1
     2    24    25   ar
     3    25    26   ar
     4    26    27   ar
     5    27    28   ar
     6    28    29   ar
     7    29    30   ar
     8    30    31   ar
     9    31    32   ar
    10    32    21    1
    11    21     1    1
    12     1     2   ar
    13     2     3   ar
    14     3     4   ar
    15     4     5   ar
    16     5     6   ar
    17     5     7   ar
    18    12     7    1
    19    12    13    1
    20    13    14    1
    21    14    15    1
    22    15    16    1
    23    15    17    1
    24    15    18    1
    25    18    19    1
    26     7     8   ar
    27     8     9    2
    28     8    10   ar
    29    10    11    1
    30    32    24   ar
    31     6     1   ar
    32    19    12    1
    33    30    26   ar
    34    10     4   ar
    35    21    22    1
    36    17    20    1
@<TRIPOS>MOLECULE
*****
 32 36 0 0 0
SMALL
GASTEIGER

@<TRIPOS>ATOM
      1 C         143.2845  142.4313  166.5387 C.ar    1  UNL1        0.2221
      2 N         143.5321  142.5165  168.0157 N.ar    1  UNL1       -0.2104
      3 C         142.5766  141.8709  168.9749 C.ar    1  UNL1        0.1221
      4 C         141.3734  141.1400  168.4571 C.ar    1  UNL1        0.1176
      5 C         141.1257  141.0547  166.9801 C.ar    1  UNL1        0.1676
      6 N         142.0812  141.7004  166.0210 N.ar    1  UNL1       -0.1945
      7 N         139.8638  140.2725  166.7661 N.ar    1  UNL1       -0.2668
      8 C         139.3316  139.8743  168.1108 C.ar    1  UNL1        0.3327
      9 O         138.0853  139.0795  168.3657 O.2     1  UNL1       -0.2462
     10 N         140.2645  140.4104  169.1559 N.ar    1  UNL1       -0.2751
     11 C         140.1149  140.2458  170.6393 C.3     1  UNL1        0.1352
     12 C         139.2431  139.9459  165.4403 C.3     1  UNL1        0.0914
     13 C         138.3836  140.9594  164.7444 C.3     1  UNL1        0.0252
     14 C         137.7629  140.6328  163.4185 C.3     1  UNL1        0.0288
     15 C         138.0017  139.2925  162.7884 C.3     1  UNL1        0.0885
     16 C         137.9338  138.1689  161.7971 C.3     1  UNL1        0.0293
     17 O         137.1187  139.9158  161.7483 O.3     1  UNL1       -0.3867
     18 C         138.8612  138.2791  163.4842 C.3     1  UNL1        0.0288
     19 C         139.4819  138.6057  164.8102 C.3     1  UNL1        0.0252
     20 H         136.8754  140.8128  162.0260 H       1  UNL1        0.2102
     21 N         144.2399  143.0770  165.5796 N.pl3   1  UNL1       -0.2815
     22 H         145.0050  143.5945  165.9203 H       1  UNL1        0.1551
     23 C         143.3047  145.4252  163.9636 C.3     1  UNL1        0.0325
     24 C         143.5623  144.1082  163.2932 C.ar    1  UNL1       -0.0038
     25 C         143.3522  143.9654  161.8148 C.ar    1  UNL1        0.0359
     26 C         143.6098  142.6485  161.1445 C.ar    1  UNL1        0.1654
     27 N         143.4913  142.2098  159.7150 N.ar    1  UNL1       -0.2034
     28 C         143.8858  140.7645  159.6396 C.ar    1  UNL1        0.2213
     29 N         144.2479  140.3100  161.0224 N.ar    1  UNL1       -0.1409
     30 N         144.0774  141.4744  161.9526 N.ar    1  UNL1       -0.2080
     31 C         144.2874  141.6173  163.4309 C.ar    1  UNL1        0.1164
     32 C         144.0299  142.9342  164.1012 C.ar    1  UNL1        0.0660
@<TRIPOS>BOND
     1    23    24    1
     2    24    25   ar
     3    25    26   ar
     4    26    27   ar
     5    27    28   ar
     6    28    29   ar
     7    29    30   ar
     8    30    31   ar
     9    31    32   ar
    10    32    21    1
    11    21     1    1
    12     1     2   ar
    13     2     3   ar
    14     3     4   ar
    15     4     5   ar
    16     5     6   ar
    17     5     7   ar
    18    12     7    1
    19    12    13    1
    20    13    14    1
    21    14    15    1
    22    15    16    1
    23    15    17    1
    24    15    18    1
    25    18    19    1
    26     7     8   ar
    27     8     9    2
    28     8    10   ar
    29    10    11    1
    30    32    24   ar
    31     6     1   ar
    32    19    12    1
    33    30    26   ar
    34    10     4   ar
    35    21    22    1
    36    17    20    1
@<TRIPOS>MOLECULE
*****
 32 36 0 0 0
SMALL
GASTEIGER

@<TRIPOS>ATOM
      1 C         140.3210  143.0212  166.2721 C.ar    1  UNL1        0.2221
      2 N         140.2475  143.0299  167.7702 N.ar    1  UNL1       -0.2104
      3 C         140.9457  141.9640  168.5617 C.ar    1  UNL1        0.1221
      4 C         141.7173  140.8893  167.8549 C.ar    1  UNL1        0.1176
      5 C         141.7909  140.8806  166.3567 C.ar    1  UNL1        0.1676
      6 N         141.0928  141.9465  165.5653 N.ar    1  UNL1       -0.1945
      7 N         142.6207  139.7024  165.9402 N.ar    1  UNL1       -0.2668
      8 C         143.0600  138.9830  167.1809 C.ar    1  UNL1        0.3327
      9 O         143.9086  137.7471  167.2298 O.2     1  UNL1       -0.2462
     10 N         142.5017  139.7166  168.3643 N.ar    1  UNL1       -0.2751
     11 C         142.6940  139.3429  169.8042 C.3     1  UNL1        0.1352
     12 C         142.9529  139.3122  164.5305 C.3     1  UNL1        0.0914
     13 C         144.1321  139.9302  163.8393 C.3     1  UNL1        0.0252
     14 C         144.4642  139.5400  162.4295 C.3     1  UNL1        0.0288
     15 C         143.6172  138.5317  161.7110 C.3     1  UNL1        0.0885
     16 C         143.1198  137.6294  160.6209 C.3     1  UNL1        0.0293
     17 O         144.6236  138.8363  160.6411 O.3     1  UNL1       -0.3867
     18 C         142.4381  137.9138  162.4022 C.3     1  UNL1        0.0288
     19 C         142.1059  138.3040  163.8120 C.3     1  UNL1        0.0252
     20 H         145.2567  139.4934  160.9704 H       1  UNL1        0.2102
     21 N         139.6229  144.0872  165.4807 N.pl3   1  UNL1       -0.2815
     22 H         139.1944  144.8429  165.9438 H       1  UNL1        0.1551
     23 C         137.4846  142.4698  164.1346 C.3     1  UNL1        0.0325
     24 C         138.5086  143.1930  163.3108 C.ar    1  UNL1       -0.0038
     25 C         138.4633  143.1075  161.8138 C.ar    1  UNL1        0.0359
     26 C         139.4872  143.8306  160.9901 C.ar    1  UNL1        0.1654
     27 N         139.6941  143.9309  159.5078 N.ar    1  UNL1       -0.2034
     28 C         140.8912  144.8015  159.2648 C.ar    1  UNL1        0.2213
     29 N         141.4240  145.2394  160.5968 N.ar    1  UNL1       -0.1409
     30 N         140.5563  144.6393  161.6631 N.ar    1  UNL1       -0.2080
     31 C         140.6015  144.7248  163.1600 C.ar    1  UNL1        0.1164
     32 C         139.5776  144.0016  163.9838 C.ar    1  UNL1        0.0660
@<TRIPOS>BOND
     1    23    24    1
     2    24    25   ar
     3    25    26   ar
     4    26    27   ar
     5    27    28   ar
     6    28    29   ar
     7    29    30   ar
     8    30    31   ar
     9    31    32   ar
    10    32    21    1
    11    21     1    1
    12     1     2   ar
    13     2     3   ar
    14     3     4   ar
    15     4     5   ar
    16     5     6   ar
    17     5     7   ar
    18    12     7    1
    19    12    13    1
    20    13    14    1
    21    14    15    1
    22    15    16    1
    23    15    17    1
    24    15    18    1
    25    18    19    1
    26     7     8   ar
    27     8     9    2
    28     8    10   ar
    29    10    11    1
    30    32    24   ar
    31     6     1   ar
    32    19    12    1
    33    30    26   ar
    34    10     4   ar
    35    21    22    1
    36    17    20    1
@<TRIPOS>MOLECULE
*****
 32 36 0 0 0
SMALL
GASTEIGER

@<TRIPOS>ATOM
      1 C         141.1497  139.6390  163.8914 C.ar    1  UNL1        0.2221
      2 N         139.9820  138.7609  163.5517 N.ar    1  UNL1       -0.2104
      3 C         138.9582  138.4359  164.5987 C.ar    1  UNL1        0.1221
      4 C         139.1022  138.9889  165.9856 C.ar    1  UNL1        0.1176
      5 C         140.2700  139.8671  166.3254 C.ar    1  UNL1        0.1676
      6 N         141.2936  140.1921  165.2783 N.ar    1  UNL1       -0.1945
      7 N         140.1477  140.2636  167.7669 N.ar    1  UNL1       -0.2668
      8 C         138.9045  139.6306  168.3179 C.ar    1  UNL1        0.3327
      9 O         138.3966  139.7622  169.7231 O.2     1  UNL1       -0.2462
     10 N         138.2583  138.8428  167.2170 N.ar    1  UNL1       -0.2751
     11 C         136.9908  138.0484  167.3281 C.3     1  UNL1        0.1352
     12 C         141.1012  141.1394  168.5242 C.3     1  UNL1        0.0914
     13 C         140.5899  142.3376  169.2679 C.3     1  UNL1        0.0252
     14 C         141.5435  143.2134  170.0253 C.3     1  UNL1        0.0288
     15 C         143.0084  142.8910  170.0391 C.3     1  UNL1        0.0885
     16 C         144.4723  142.9976  170.3485 C.3     1  UNL1        0.0293
     17 O         143.0055  144.1262  170.8902 O.3     1  UNL1       -0.3867
     18 C         143.5197  141.6928  169.2955 C.3     1  UNL1        0.0288
     19 C         142.5661  140.8170  168.5380 C.3     1  UNL1        0.0252
     20 H         142.0983  144.4593  170.9736 H       1  UNL1        0.2102
     21 N         142.1733  139.9640  162.8444 N.pl3   1  UNL1       -0.2815
     22 H         142.8763  139.3110  162.6238 H       1  UNL1        0.1551
     23 C         144.7195  141.4178  162.2090 C.3     1  UNL1        0.0325
     24 C         143.3990  142.0108  161.8156 C.ar    1  UNL1       -0.0038
     25 C         143.3517  143.3308  161.1046 C.ar    1  UNL1        0.0359
     26 C         142.0312  143.9238  160.7113 C.ar    1  UNL1        0.1654
     27 N         141.6736  145.1988  160.0067 N.ar    1  UNL1       -0.2034
     28 C         140.1795  145.2599  159.8890 C.ar    1  UNL1        0.2213
     29 N         139.6137  144.0227  160.5208 N.ar    1  UNL1       -0.1409
     30 N         140.7582  143.1969  161.0290 N.ar    1  UNL1       -0.2080
     31 C         140.8055  141.8770  161.7400 C.ar    1  UNL1        0.1164
     32 C         142.1260  141.2840  162.1333 C.ar    1  UNL1        0.0660
@<TRIPOS>BOND
     1    23    24    1
     2    24    25   ar
     3    25    26   ar
     4    26    27   ar
     5    27    28   ar
     6    28    29   ar
     7    29    30   ar
     8    30    31   ar
     9    31    32   ar
    10    32    21    1
    11    21     1    1
    12     1     2   ar
    13     2     3   ar
    14     3     4   ar
    15     4     5   ar
    16     5     6   ar
    17     5     7   ar
    18    12     7    1
    19    12    13    1
    20    13    14    1
    21    14    15    1
    22    15    16    1
    23    15    17    1
    24    15    18    1
    25    18    19    1
    26     7     8   ar
    27     8     9    2
    28     8    10   ar
    29    10    11    1
    30    32    24   ar
    31     6     1   ar
    32    19    12    1
    33    30    26   ar
    34    10     4   ar
    35    21    22    1
    36    17    20    1
@<TRIPOS>MOLECULE
*****
 32 36 0 0 0
SMALL
GASTEIGER

@<TRIPOS>ATOM
      1 C         142.5577  143.6119  159.4605 C.ar    1  UNL1        0.2221
      2 N         143.1929  143.7824  158.1124 N.ar    1  UNL1       -0.2104
      3 C         143.5267  142.5781  157.2827 C.ar    1  UNL1        0.1221
      4 C         143.2252  141.2032  157.8012 C.ar    1  UNL1        0.1176
      5 C         142.5900  141.0327  159.1494 C.ar    1  UNL1        0.1676
      6 N         142.2563  142.2369  159.9790 N.ar    1  UNL1       -0.1945
      7 N         142.4115  139.5637  159.3952 N.ar    1  UNL1       -0.2668
      8 C         142.9363  138.8264  158.1989 C.ar    1  UNL1        0.3327
      9 O         142.9550  137.3374  158.0193 O.2     1  UNL1       -0.2462
     10 N         143.4393  139.8397  157.2138 N.ar    1  UNL1       -0.2751
     11 C         144.0491  139.5418  155.8762 C.3     1  UNL1        0.1352
     12 C         141.8132  138.9413  160.6218 C.3     1  UNL1        0.0914
     13 C         140.3359  138.6904  160.6910 C.3     1  UNL1        0.0252
     14 C         139.7375  138.0680  161.9176 C.3     1  UNL1        0.0288
     15 C         140.6165  137.6965  163.0750 C.3     1  UNL1        0.0885
     16 C         141.0325  137.1750  164.4185 C.3     1  UNL1        0.0293
     17 O         139.2837  137.2645  163.6109 O.3     1  UNL1       -0.3867
     18 C         142.0937  137.9474  163.0058 C.3     1  UNL1        0.0288
     19 C         142.6921  138.5698  161.7791 C.3     1  UNL1        0.0252
     20 H         138.5956  137.4478  162.9523 H       1  UNL1        0.2102
     21 N         142.2240  144.8161  160.2901 N.pl3   1  UNL1       -0.2815
     22 H         142.4771  145.7147  159.9775 H       1  UNL1        0.1551
     23 C         143.7799  144.6596  162.8504 C.3     1  UNL1        0.0325
     24 C         142.2825  144.5731  162.8761 C.ar    1  UNL1       -0.0038
     25 C         141.5632  144.4083  164.1821 C.ar    1  UNL1        0.0359
     26 C         140.0659  144.3218  164.2078 C.ar    1  UNL1        0.1654
     27 N         139.0892  144.1596  165.3346 N.ar    1  UNL1       -0.2034
     28 C         137.7076  144.1376  164.7509 C.ar    1  UNL1        0.2213
     29 N         137.8305  144.2862  163.2633 N.ar    1  UNL1       -0.1409
     30 N         139.2880  144.4000  162.9277 N.ar    1  UNL1       -0.2080
     31 C         140.0074  144.5648  161.6218 C.ar    1  UNL1        0.1164
     32 C         141.5047  144.6513  161.5961 C.ar    1  UNL1        0.0660
@<TRIPOS>BOND
     1    23    24    1
     2    24    25   ar
     3    25    26   ar
     4    26    27   ar
     5    27    28   ar
     6    28    29   ar
     7    29    30   ar
     8    30    31   ar
     9    31    32   ar
    10    32    21    1
    11    21     1    1
    12     1     2   ar
    13     2     3   ar
    14     3     4   ar
    15     4     5   ar
    16     5     6   ar
    17     5     7   ar
    18    12     7    1
    19    12    13    1
    20    13    14    1
    21    14    15    1
    22    15    16    1
    23    15    17    1
    24    15    18    1
    25    18    19    1
    26     7     8   ar
    27     8     9    2
    28     8    10   ar
    29    10    11    1
    30    32    24   ar
    31     6     1   ar
    32    19    12    1
    33    30    26   ar
    34    10     4   ar
    35    21    22    1
    36    17    20    1
@<TRIPOS>MOLECULE
*****
 32 36 0 0 0
SMALL
GASTEIGER

@<TRIPOS>ATOM
      1 C         140.7179  140.2566  163.8026 C.ar    1  UNL1        0.2221
      2 N         139.5614  139.3582  163.4782 N.ar    1  UNL1       -0.2104
      3 C         138.6597  138.8711  164.5735 C.ar    1  UNL1        0.1221
      4 C         138.9145  139.2825  165.9932 C.ar    1  UNL1        0.1176
      5 C         140.0711  140.1810  166.3177 C.ar    1  UNL1        0.1676
      6 N         140.9727  140.6680  165.2225 N.ar    1  UNL1       -0.1945
      7 N         140.0732  140.4171  167.7991 N.ar    1  UNL1       -0.2668
      8 C         138.9181  139.6645  168.3901 C.ar    1  UNL1        0.3327
      9 O         138.5446  139.6208  169.8421 O.2     1  UNL1       -0.2462
     10 N         138.2019  138.9633  167.2740 N.ar    1  UNL1       -0.2751
     11 C         136.9867  138.0953  167.4142 C.3     1  UNL1        0.1352
     12 C         141.0577  141.2580  168.5564 C.3     1  UNL1        0.0914
     13 C         140.5786  142.4232  169.3707 C.3     1  UNL1        0.0252
     14 C         141.5631  143.2642  170.1280 C.3     1  UNL1        0.0288
     15 C         143.0266  142.9400  170.0711 C.3     1  UNL1        0.0885
     16 C         144.5016  143.0316  170.3279 C.3     1  UNL1        0.0293
     17 O         143.0599  144.1370  170.9746 O.3     1  UNL1       -0.3867
     18 C         143.5056  141.7749  169.2568 C.3     1  UNL1        0.0288
     19 C         142.5211  140.9339  168.4994 C.3     1  UNL1        0.0252
     20 H         142.1575  144.4670  171.1075 H       1  UNL1        0.2102
     21 N         141.6196  140.7437  162.7073 N.pl3   1  UNL1       -0.2815
     22 H         141.9575  141.6683  162.7225 H       1  UNL1        0.1551
     23 C         144.0495  139.0039  162.9696 C.3     1  UNL1        0.0325
     24 C         143.2213  138.9522  161.7199 C.ar    1  UNL1       -0.0038
     25 C         143.6082  138.0306  160.6014 C.ar    1  UNL1        0.0359
     26 C         142.7801  137.9790  159.3518 C.ar    1  UNL1        0.1654
     27 N         142.9132  137.1757  158.0920 N.ar    1  UNL1       -0.2034
     28 C         141.7806  137.5492  157.1823 C.ar    1  UNL1        0.2213
     29 N         140.9474  138.5833  157.8799 N.ar    1  UNL1       -0.1409
     30 N         141.5651  138.8489  159.2207 N.ar    1  UNL1       -0.2080
     31 C         141.1783  139.7704  160.3392 C.ar    1  UNL1        0.1164
     32 C         142.0064  139.8221  161.5888 C.ar    1  UNL1        0.0660
@<TRIPOS>BOND
     1    23    24    1
     2    24    25   ar
     3    25    26   ar
     4    26    27   ar
     5    27    28   ar
     6    28    29   ar
     7    29    30   ar
     8    30    31   ar
     9    31    32   ar
    10    32    21    1
    11    21     1    1
    12     1     2   ar
    13     2     3   ar
    14     3     4   ar
    15     4     5   ar
    16     5     6   ar
    17     5     7   ar
    18    12     7    1
    19    12    13    1
    20    13    14    1
    21    14    15    1
    22    15    16    1
    23    15    17    1
    24    15    18    1
    25    18    19    1
    26     7     8   ar
    27     8     9    2
    28     8    10   ar
    29    10    11    1
    30    32    24   ar
    31     6     1   ar
    32    19    12    1
    33    30    26   ar
    34    10     4   ar
    35    21    22    1
    36    17    20    1
@<TRIPOS>MOLECULE
*****
 32 36 0 0 0
SMALL
GASTEIGER

@<TRIPOS>ATOM
      1 C         138.9687  139.8018  158.6297 C.ar    1  UNL1        0.2221
      2 N         138.7755  139.4780  157.1779 N.ar    1  UNL1       -0.2104
      3 C         139.9581  139.4298  156.2563 C.ar    1  UNL1        0.1221
      4 C         141.3339  139.7054  156.7866 C.ar    1  UNL1        0.1176
      5 C         141.5271  140.0292  158.2385 C.ar    1  UNL1        0.1676
      6 N         140.3446  140.0774  159.1600 N.ar    1  UNL1       -0.1945
      7 N         142.9917  140.2542  158.4723 N.ar    1  UNL1       -0.2668
      8 C         143.7035  140.0694  157.1650 C.ar    1  UNL1        0.3327
      9 O         145.1805  140.2006  156.9391 O.2     1  UNL1       -0.2462
     10 N         142.6790  139.7302  156.1232 N.ar    1  UNL1       -0.2751
     11 C         142.9516  139.4628  154.6726 C.3     1  UNL1        0.1352
     12 C         143.6319  140.6027  159.7832 C.3     1  UNL1        0.0914
     13 C         144.1688  141.9846  160.0117 C.3     1  UNL1        0.0252
     14 C         144.8090  142.3332  161.3227 C.3     1  UNL1        0.0288
     15 C         144.9123  141.2998  162.4052 C.3     1  UNL1        0.0885
     16 C         145.2419  140.6706  163.7263 C.3     1  UNL1        0.0293
     17 O         145.5637  142.4632  163.0926 O.3     1  UNL1       -0.3867
     18 C         144.3754  139.9180  162.1766 C.3     1  UNL1        0.0288
     19 C         143.7352  139.5694  160.8656 C.3     1  UNL1        0.0252
     20 H         145.5701  143.2286  162.4967 H       1  UNL1        0.2102
     21 N         137.7863  139.8500  159.5512 N.pl3   1  UNL1       -0.2815
     22 H         136.9431  139.4120  159.2934 H       1  UNL1        0.1551
     23 C         137.9788  138.2822  162.1017 C.3     1  UNL1        0.0325
     24 C         137.9846  139.7818  162.1408 C.ar    1  UNL1       -0.0038
     25 C         138.0866  140.4974  163.4552 C.ar    1  UNL1        0.0359
     26 C         138.0923  141.9969  163.4943 C.ar    1  UNL1        0.1654
     27 N         138.1813  142.9709  164.6315 N.ar    1  UNL1       -0.2034
     28 C         138.1399  144.3567  164.0591 C.ar    1  UNL1        0.2213
     29 N         138.0255  144.2392  162.5681 N.ar    1  UNL1       -0.1409
     30 N         137.9960  142.7807  162.2190 N.ar    1  UNL1       -0.2080
     31 C         137.8940  142.0651  160.9047 C.ar    1  UNL1        0.1164
     32 C         137.8883  140.5656  160.8656 C.ar    1  UNL1        0.0660
@<TRIPOS>BOND
     1    23    24    1
     2    24    25   ar
     3    25    26   ar
     4    26    27   ar
     5    27    28   ar
     6    28    29   ar
     7    29    30   ar
     8    30    31   ar
     9    31    32   ar
    10    32    21    1
    11    21     1    1
    12     1     2   ar
    13     2     3   ar
    14     3     4   ar
    15     4     5   ar
    16     5     6   ar
    17     5     7   ar
    18    12     7    1
    19    12    13    1
    20    13    14    1
    21    14    15    1
    22    15    16    1
    23    15    17    1
    24    15    18    1
    25    18    19    1
    26     7     8   ar
    27     8     9    2
    28     8    10   ar
    29    10    11    1
    30    32    24   ar
    31     6     1   ar
    32    19    12    1
    33    30    26   ar
    34    10     4   ar
    35    21    22    1
    36    17    20    1
@<TRIPOS>MOLECULE
*****
 32 36 0 0 0
SMALL
GASTEIGER

@<TRIPOS>ATOM
      1 C         138.8865  138.3999  164.3817 C.ar    1  UNL1        0.2221
      2 N         138.3006  137.7254  165.5866 N.ar    1  UNL1       -0.2104
      3 C         138.4339  138.3588  166.9398 C.ar    1  UNL1        0.1221
      4 C         139.1531  139.6668  167.0880 C.ar    1  UNL1        0.1176
      5 C         139.7390  140.3413  165.8830 C.ar    1  UNL1        0.1676
      6 N         139.6057  139.7079  164.5300 N.ar    1  UNL1       -0.1945
      7 N         140.3882  141.6158  166.3351 N.ar    1  UNL1       -0.2668
      8 C         140.2035  141.7290  167.8194 C.ar    1  UNL1        0.3327
      9 O         140.6956  142.8498  168.6862 O.2     1  UNL1       -0.2462
     10 N         139.4402  140.5244  168.2848 N.ar    1  UNL1       -0.2751
     11 C         139.0351  140.2293  169.6985 C.3     1  UNL1        0.1352
     12 C         141.0974  142.6037  165.4571 C.3     1  UNL1        0.0914
     13 C         140.3074  143.5503  164.6027 C.3     1  UNL1        0.0252
     14 C         141.0167  144.5382  163.7247 C.3     1  UNL1        0.0288
     15 C         142.5160  144.5795  163.7010 C.3     1  UNL1        0.0885
     16 C         143.9089  145.0003  163.3366 C.3     1  UNL1        0.0293
     17 O         142.2098  145.6722  162.7200 O.3     1  UNL1       -0.3867
     18 C         143.3059  143.6329  164.5553 C.3     1  UNL1        0.0288
     19 C         142.5966  142.6450  165.4334 C.3     1  UNL1        0.0252
     20 H         141.2485  145.7647  162.6287 H       1  UNL1        0.2102
     21 N         138.7532  137.7664  163.0287 N.pl3   1  UNL1       -0.2815
     22 H         138.1729  136.9803  162.9082 H       1  UNL1        0.1551
     23 C         137.3493  139.5437  161.0613 C.3     1  UNL1        0.0325
     24 C         138.8021  139.2194  160.8754 C.ar    1  UNL1       -0.0038
     25 C         139.5528  139.7837  159.7057 C.ar    1  UNL1        0.0359
     26 C         141.0055  139.4593  159.5199 C.ar    1  UNL1        0.1654
     27 N         141.9984  139.8657  158.4716 N.ar    1  UNL1       -0.2034
     28 C         143.3140  139.2282  158.8074 C.ar    1  UNL1        0.2213
     29 N         143.1341  138.4278  160.0633 N.ar    1  UNL1       -0.1409
     30 N         141.7073  138.5707  160.5036 N.ar    1  UNL1       -0.2080
     31 C         140.9566  138.0064  161.6732 C.ar    1  UNL1        0.1164
     32 C         139.5039  138.3308  161.8590 C.ar    1  UNL1        0.0660
@<TRIPOS>BOND
     1    23    24    1
     2    24    25   ar
     3    25    26   ar
     4    26    27   ar
     5    27    28   ar
     6    28    29   ar
     7    29    30   ar
     8    30    31   ar
     9    31    32   ar
    10    32    21    1
    11    21     1    1
    12     1     2   ar
    13     2     3   ar
    14     3     4   ar
    15     4     5   ar
    16     5     6   ar
    17     5     7   ar
    18    12     7    1
    19    12    13    1
    20    13    14    1
    21    14    15    1
    22    15    16    1
    23    15    17    1
    24    15    18    1
    25    18    19    1
    26     7     8   ar
    27     8     9    2
    28     8    10   ar
    29    10    11    1
    30    32    24   ar
    31     6     1   ar
    32    19    12    1
    33    30    26   ar
    34    10     4   ar
    35    21    22    1
    36    17    20    1
@<TRIPOS>MOLECULE
*****
 32 36 0 0 0
SMALL
GASTEIGER

@<TRIPOS>ATOM
      1 C         139.0749  142.9042  159.4642 C.ar    1  UNL1        0.2221
      2 N         138.8716  143.3901  158.0597 N.ar    1  UNL1       -0.2104
      3 C         140.0431  143.5104  157.1306 C.ar    1  UNL1        0.1221
      4 C         141.4180  143.1449  157.6062 C.ar    1  UNL1        0.1176
      5 C         141.6213  142.6590  159.0107 C.ar    1  UNL1        0.1676
      6 N         140.4498  142.5387  159.9397 N.ar    1  UNL1       -0.1945
      7 N         143.0824  142.3742  159.1958 N.ar    1  UNL1       -0.2668
      8 C         143.7820  142.6841  157.9056 C.ar    1  UNL1        0.3327
      9 O         145.2522  142.5425  157.6438 O.2     1  UNL1       -0.2462
     10 N         142.7534  143.1604  156.9232 N.ar    1  UNL1       -0.2751
     11 C         143.0144  143.5787  155.5066 C.3     1  UNL1        0.1352
     12 C         143.7300  141.8684  160.4505 C.3     1  UNL1        0.0914
     13 C         143.6508  140.4119  160.8008 C.3     1  UNL1        0.0252
     14 C         144.2985  139.9061  162.0557 C.3     1  UNL1        0.0288
     15 C         145.0254  140.8567  162.9603 C.3     1  UNL1        0.0885
     16 C         145.8207  141.3624  164.1272 C.3     1  UNL1        0.0293
     17 O         145.2224  139.5759  163.7159 O.3     1  UNL1       -0.3867
     18 C         145.1046  142.3130  162.6099 C.3     1  UNL1        0.0288
     19 C         144.4569  142.8189  161.3551 C.3     1  UNL1        0.0252
     20 H         144.7937  138.8491  163.2375 H       1  UNL1        0.2102
     21 N         137.9034  142.7839  160.3931 N.pl3   1  UNL1       -0.2815
     22 H         137.0353  143.1758  160.1439 H       1  UNL1        0.1551
     23 C         137.8222  144.3240  162.9663 C.3     1  UNL1        0.0325
     24 C         138.0138  142.8364  162.9883 C.ar    1  UNL1       -0.0038
     25 C         138.1648  142.1189  164.2969 C.ar    1  UNL1        0.0359
     26 C         138.3564  140.6314  164.3189 C.ar    1  UNL1        0.1654
     27 N         138.5320  139.6586  165.4471 N.ar    1  UNL1       -0.2034
     28 C         138.6811  138.2873  164.8577 C.ar    1  UNL1        0.2213
     29 N         138.5976  138.4126  163.3652 N.ar    1  UNL1       -0.1409
     30 N         138.3970  139.8613  163.0322 N.ar    1  UNL1       -0.2080
     31 C         138.2460  140.5789  161.7237 C.ar    1  UNL1        0.1164
     32 C         138.0544  142.0664  161.7017 C.ar    1  UNL1        0.0660
@<TRIPOS>BOND
     1    23    24    1
     2    24    25   ar
     3    25    26   ar
     4    26    27   ar
     5    27    28   ar
     6    28    29   ar
     7    29    30   ar
     8    30    31   ar
     9    31    32   ar
    10    32    21    1
    11    21     1    1
    12     1     2   ar
    13     2     3   ar
    14     3     4   ar
    15     4     5   ar
    16     5     6   ar
    17     5     7   ar
    18    12     7    1
    19    12    13    1
    20    13    14    1
    21    14    15    1
    22    15    16    1
    23    15    17    1
    24    15    18    1
    25    18    19    1
    26     7     8   ar
    27     8     9    2
    28     8    10   ar
    29    10    11    1
    30    32    24   ar
    31     6     1   ar
    32    19    12    1
    33    30    26   ar
    34    10     4   ar
    35    21    22    1
    36    17    20    1
