@<TRIPOS>MOLECULE
*****
 27 29 0 0 0
SMALL
GASTEIGER

@<TRIPOS>ATOM
      1 C         142.5222  142.2004  166.8572 C.3     1  UNL1        0.1456
      2 O         143.7391  142.8031  167.4943 O.3     1  UNL1       -0.3768
      3 H         143.6267  142.8166  168.4576 H       1  UNL1        0.2112
      4 C         141.9074  142.0095  168.2120 C.ar    1  UNL1        0.0264
      5 C         140.7386  142.8512  168.6306 C.ar    1  UNL1        0.0015
      6 C         140.1238  142.6602  169.9855 C.ar    1  UNL1        0.0204
      7 C         140.6779  141.6275  170.9217 C.ar    1  UNL1        0.0989
      8 N         141.8467  140.7857  170.5030 N.ar    1  UNL1       -0.2426
      9 C         142.4615  140.9767  169.1482 C.ar    1  UNL1        0.0972
     10 C         143.1370  142.3914  165.5024 C.ar    1  UNL1        0.0264
     11 C         143.1687  143.7552  164.8786 C.ar    1  UNL1        0.0015
     12 C         143.7835  143.9461  163.5237 C.ar    1  UNL1        0.0204
     13 C         144.3665  142.7733  162.7927 C.ar    1  UNL1        0.0989
     14 N         144.3348  141.4095  163.4164 N.ar    1  UNL1       -0.2426
     15 C         143.7200  141.2185  164.7712 C.ar    1  UNL1        0.0972
     16 C         141.3053  141.5977  166.2200 C.3     1  UNL1        0.1130
     17 C         140.4443  142.4272  165.3142 C.ar    1  UNL1       -0.0049
     18 C         139.8188  143.6915  165.8244 C.ar    1  UNL1       -0.0029
     19 C         138.9578  144.5209  164.9185 C.ar    1  UNL1       -0.0003
     20 C         138.7222  144.0861  163.5024 C.ar    1  UNL1       -0.0000
     21 C         139.3477  142.8218  162.9921 C.ar    1  UNL1       -0.0003
     22 C         140.2087  141.9923  163.8980 C.ar    1  UNL1       -0.0029
     23 N         140.9494  140.1655  166.4888 N.3     1  UNL1       -0.2679
     24 C         141.7035  138.1458  165.0389 C.3     1  UNL1        0.0188
     25 C         141.9386  139.0782  166.1901 C.3     1  UNL1        0.0725
     26 C         139.6044  139.8207  167.0562 C.3     1  UNL1        0.0725
     27 C         138.4695  139.4752  166.1383 C.3     1  UNL1        0.0188
@<TRIPOS>BOND
     1    24    25    1
     2    25    23    1
     3    23    26    1
     4    26    27    1
     5    23    16    1
     6    16    17    1
     7    17    18   ar
     8    18    19   ar
     9    19    20   ar
    10    20    21   ar
    11    21    22   ar
    12    16     1    1
    13     1     2    1
    14     1     4    1
    15     4     5   ar
    16     5     6   ar
    17     6     7   ar
    18     7     8   ar
    19     8     9   ar
    20     1    10    1
    21    10    11   ar
    22    11    12   ar
    23    12    13   ar
    24    13    14   ar
    25    14    15   ar
    26    22    17   ar
    27     9     4   ar
    28    15    10   ar
    29     2     3    1
@<TRIPOS>MOLECULE
*****
 27 29 0 0 0
SMALL
GASTEIGER

@<TRIPOS>ATOM
      1 C         142.5220  142.2003  166.8538 C.3     1  UNL1        0.1456
      2 O         143.7388  142.8032  167.4910 O.3     1  UNL1       -0.3768
      3 H         144.3757  143.0501  166.8024 H       1  UNL1        0.2112
      4 C         143.1364  142.3921  165.4989 C.ar    1  UNL1        0.0264
      5 C         143.1688  143.7565  164.8764 C.ar    1  UNL1        0.0015
      6 C         143.7833  143.9482  163.5215 C.ar    1  UNL1        0.0204
      7 C         144.3654  142.7757  162.7892 C.ar    1  UNL1        0.0989
      8 N         144.3331  141.4114  163.4118 N.ar    1  UNL1       -0.2426
      9 C         143.7186  141.2196  164.7666 C.ar    1  UNL1        0.0972
     10 C         141.9075  142.0085  168.2086 C.ar    1  UNL1        0.0264
     11 C         140.7393  142.8506  168.6283 C.ar    1  UNL1        0.0015
     12 C         140.1248  142.6588  169.9832 C.ar    1  UNL1        0.0204
     13 C         140.6786  141.6249  170.9183 C.ar    1  UNL1        0.0989
     14 N         141.8468  140.7828  170.4986 N.ar    1  UNL1       -0.2426
     15 C         142.4612  140.9746  169.1437 C.ar    1  UNL1        0.0972
     16 C         141.3052  141.5975  166.2166 C.3     1  UNL1        0.1130
     17 C         140.4437  142.4271  165.3113 C.ar    1  UNL1       -0.0049
     18 C         140.2076  141.9928  163.8951 C.ar    1  UNL1       -0.0029
     19 C         139.3461  142.8224  162.9898 C.ar    1  UNL1       -0.0003
     20 C         138.7206  144.0864  163.5007 C.ar    1  UNL1       -0.0000
     21 C         138.9567  144.5208  164.9169 C.ar    1  UNL1       -0.0003
     22 C         139.8182  143.6912  165.8222 C.ar    1  UNL1       -0.0029
     23 N         140.9499  140.1650  166.4846 N.3     1  UNL1       -0.2679
     24 C         141.7023  138.1435  165.0365 C.3     1  UNL1        0.0188
     25 C         141.9395  139.0782  166.1854 C.3     1  UNL1        0.0725
     26 C         139.6051  139.8194  167.0520 C.3     1  UNL1        0.0725
     27 C         138.4687  139.4792  166.1339 C.3     1  UNL1        0.0188
@<TRIPOS>BOND
     1    24    25    1
     2    25    23    1
     3    23    26    1
     4    26    27    1
     5    23    16    1
     6    16    17    1
     7    17    18   ar
     8    18    19   ar
     9    19    20   ar
    10    20    21   ar
    11    21    22   ar
    12    16     1    1
    13     1     2    1
    14     1     4    1
    15     4     5   ar
    16     5     6   ar
    17     6     7   ar
    18     7     8   ar
    19     8     9   ar
    20     1    10    1
    21    10    11   ar
    22    11    12   ar
    23    12    13   ar
    24    13    14   ar
    25    14    15   ar
    26    22    17   ar
    27     9     4   ar
    28    15    10   ar
    29     2     3    1
@<TRIPOS>MOLECULE
*****
 27 29 0 0 0
SMALL
GASTEIGER

@<TRIPOS>ATOM
      1 C         140.0964  141.8849  165.6421 C.3     1  UNL1        0.1456
      2 O         139.8005  143.3179  165.9724 O.3     1  UNL1       -0.3768
      3 H         139.3244  143.7283  165.2336 H       1  UNL1        0.2112
      4 C         139.4202  142.0514  164.3136 C.ar    1  UNL1        0.0264
      5 C         140.2352  142.0725  163.0545 C.ar    1  UNL1        0.0015
      6 C         139.5588  142.2390  161.7260 C.ar    1  UNL1        0.0204
      7 C         138.0676  142.3844  161.6566 C.ar    1  UNL1        0.0989
      8 N         137.2525  142.3633  162.9157 N.ar    1  UNL1       -0.2426
      9 C         137.9288  142.1968  164.2442 C.ar    1  UNL1        0.0972
     10 C         140.7727  141.7184  166.9705 C.ar    1  UNL1        0.0264
     11 C         142.1411  142.2912  167.1926 C.ar    1  UNL1        0.0015
     12 C         142.8174  142.1247  168.5211 C.ar    1  UNL1        0.0204
     13 C         142.1252  141.3853  169.6276 C.ar    1  UNL1        0.0989
     14 N         140.7568  140.8125  169.4055 N.ar    1  UNL1       -0.2426
     15 C         140.0806  140.9790  168.0771 C.ar    1  UNL1        0.0972
     16 C         140.3923  140.4519  165.3118 C.3     1  UNL1        0.1130
     17 C         141.8138  139.9864  165.1987 C.ar    1  UNL1       -0.0049
     18 C         142.7368  140.6292  164.2063 C.ar    1  UNL1       -0.0029
     19 C         144.1582  140.1637  164.0932 C.ar    1  UNL1       -0.0003
     20 C         144.6567  139.0554  164.9725 C.ar    1  UNL1       -0.0000
     21 C         143.7337  138.4126  165.9649 C.ar    1  UNL1       -0.0003
     22 C         142.3122  138.8781  166.0781 C.ar    1  UNL1       -0.0029
     23 N         139.2668  139.4844  165.0947 N.3     1  UNL1       -0.2679
     24 C         137.7751  138.1687  166.7662 C.3     1  UNL1        0.0188
     25 C         138.1157  139.4451  166.0557 C.3     1  UNL1        0.0725
     26 C         139.2923  138.5563  163.9167 C.3     1  UNL1        0.0725
     27 C         138.3681  138.7891  162.7584 C.3     1  UNL1        0.0188
@<TRIPOS>BOND
     1    24    25    1
     2    25    23    1
     3    23    26    1
     4    26    27    1
     5    23    16    1
     6    16    17    1
     7    17    18   ar
     8    18    19   ar
     9    19    20   ar
    10    20    21   ar
    11    21    22   ar
    12    16     1    1
    13     1     2    1
    14     1     4    1
    15     4     5   ar
    16     5     6   ar
    17     6     7   ar
    18     7     8   ar
    19     8     9   ar
    20     1    10    1
    21    10    11   ar
    22    11    12   ar
    23    12    13   ar
    24    13    14   ar
    25    14    15   ar
    26    22    17   ar
    27     9     4   ar
    28    15    10   ar
    29     2     3    1
@<TRIPOS>MOLECULE
*****
 27 29 0 0 0
SMALL
GASTEIGER

@<TRIPOS>ATOM
      1 C         140.1051  141.9174  165.6133 C.3     1  UNL1        0.1456
      2 O         139.8164  143.3477  165.9608 O.3     1  UNL1       -0.3768
      3 H         139.3501  143.7719  165.2236 H       1  UNL1        0.2112
      4 C         139.4423  142.1072  164.2811 C.ar    1  UNL1        0.0264
      5 C         140.2690  142.1394  163.0299 C.ar    1  UNL1        0.0015
      6 C         139.6062  142.3293  161.6977 C.ar    1  UNL1        0.0204
      7 C         138.1167  142.4870  161.6168 C.ar    1  UNL1        0.0989
      8 N         137.2900  142.4549  162.8680 N.ar    1  UNL1       -0.2426
      9 C         137.9528  142.2650  164.2002 C.ar    1  UNL1        0.0972
     10 C         140.7679  141.7275  166.9454 C.ar    1  UNL1        0.0264
     11 C         142.1331  142.2978  167.1919 C.ar    1  UNL1        0.0015
     12 C         142.7959  142.1079  168.5242 C.ar    1  UNL1        0.0204
     13 C         142.0934  141.3477  169.6098 C.ar    1  UNL1        0.0989
     14 N         140.7281  140.7773  169.3632 N.ar    1  UNL1       -0.2426
     15 C         140.0654  140.9672  168.0311 C.ar    1  UNL1        0.0972
     16 C         140.3938  140.4871  165.2657 C.3     1  UNL1        0.1130
     17 C         141.8125  140.0075  165.1810 C.ar    1  UNL1       -0.0049
     18 C         142.7680  140.6573  164.2246 C.ar    1  UNL1       -0.0029
     19 C         144.1868  140.1777  164.1399 C.ar    1  UNL1       -0.0003
     20 C         144.6500  139.0483  165.0116 C.ar    1  UNL1       -0.0000
     21 C         143.6945  138.3984  165.9680 C.ar    1  UNL1       -0.0003
     22 C         142.2758  138.8780  166.0527 C.ar    1  UNL1       -0.0029
     23 N         139.2637  139.5362  165.0029 N.3     1  UNL1       -0.2679
     24 C         138.2878  138.8571  162.6929 C.3     1  UNL1        0.0188
     25 C         139.2916  138.6555  163.7891 C.3     1  UNL1        0.0725
     26 C         138.1059  139.4663  165.9539 C.3     1  UNL1        0.0725
     27 C         137.8366  138.2026  166.7160 C.3     1  UNL1        0.0188
@<TRIPOS>BOND
     1    24    25    1
     2    25    23    1
     3    23    26    1
     4    26    27    1
     5    23    16    1
     6    16    17    1
     7    17    18   ar
     8    18    19   ar
     9    19    20   ar
    10    20    21   ar
    11    21    22   ar
    12    16     1    1
    13     1     2    1
    14     1     4    1
    15     4     5   ar
    16     5     6   ar
    17     6     7   ar
    18     7     8   ar
    19     8     9   ar
    20     1    10    1
    21    10    11   ar
    22    11    12   ar
    23    12    13   ar
    24    13    14   ar
    25    14    15   ar
    26    22    17   ar
    27     9     4   ar
    28    15    10   ar
    29     2     3    1
@<TRIPOS>MOLECULE
*****
 27 29 0 0 0
SMALL
GASTEIGER

@<TRIPOS>ATOM
      1 C         140.1294  140.7446  166.7782 C.3     1  UNL1        0.1456
      2 O         139.1631  139.8738  167.5253 O.3     1  UNL1       -0.3768
      3 H         139.2923  139.9921  168.4794 H       1  UNL1        0.2112
      4 C         140.6828  141.2466  168.0788 C.ar    1  UNL1        0.0264
      5 C         140.4764  142.6773  168.4794 C.ar    1  UNL1        0.0015
      6 C         141.0299  143.1792  169.7801 C.ar    1  UNL1        0.0204
      7 C         141.7896  142.2505  170.6802 C.ar    1  UNL1        0.0989
      8 N         141.9959  140.8198  170.2796 N.ar    1  UNL1       -0.2426
      9 C         141.4425  140.3178  168.9790 C.ar    1  UNL1        0.0972
     10 C         139.5760  140.2426  165.4775 C.ar    1  UNL1        0.0264
     11 C         138.2961  140.8094  164.9384 C.ar    1  UNL1        0.0015
     12 C         137.7427  140.3074  163.6377 C.ar    1  UNL1        0.0204
     13 C         138.4692  139.2387  162.8761 C.ar    1  UNL1        0.0989
     14 N         139.7491  138.6719  163.4153 N.ar    1  UNL1       -0.2426
     15 C         140.3025  139.1739  164.7159 C.ar    1  UNL1        0.0972
     16 C         141.0956  141.6154  166.0310 C.3     1  UNL1        0.1130
     17 C         140.5857  142.7166  165.1494 C.ar    1  UNL1       -0.0049
     18 C         141.0314  142.7999  163.7196 C.ar    1  UNL1       -0.0029
     19 C         140.5215  143.9011  162.8380 C.ar    1  UNL1       -0.0003
     20 C         139.5660  144.9191  163.3861 C.ar    1  UNL1       -0.0000
     21 C         139.1202  144.8359  164.8160 C.ar    1  UNL1       -0.0003
     22 C         139.6301  143.7346  165.6976 C.ar    1  UNL1       -0.0029
     23 N         142.5717  141.3849  166.1655 N.3     1  UNL1       -0.2679
     24 C         143.9306  139.7737  164.6465 C.3     1  UNL1        0.0188
     25 C         143.1457  140.0248  165.8999 C.3     1  UNL1        0.0725
     26 C         143.4737  142.5145  166.5657 C.3     1  UNL1        0.0725
     27 C         144.2445  143.2652  165.5205 C.3     1  UNL1        0.0188
@<TRIPOS>BOND
     1    24    25    1
     2    25    23    1
     3    23    26    1
     4    26    27    1
     5    23    16    1
     6    16    17    1
     7    17    18   ar
     8    18    19   ar
     9    19    20   ar
    10    20    21   ar
    11    21    22   ar
    12    16     1    1
    13     1     2    1
    14     1     4    1
    15     4     5   ar
    16     5     6   ar
    17     6     7   ar
    18     7     8   ar
    19     8     9   ar
    20     1    10    1
    21    10    11   ar
    22    11    12   ar
    23    12    13   ar
    24    13    14   ar
    25    14    15   ar
    26    22    17   ar
    27     9     4   ar
    28    15    10   ar
    29     2     3    1
@<TRIPOS>MOLECULE
*****
 27 29 0 0 0
SMALL
GASTEIGER

@<TRIPOS>ATOM
      1 C         140.1401  140.7417  166.7759 C.3     1  UNL1        0.1456
      2 O         139.1791  139.8693  167.5278 O.3     1  UNL1       -0.3768
      3 H         138.6291  139.3769  166.8986 H       1  UNL1        0.2112
      4 C         139.5779  140.2425  165.4780 C.ar    1  UNL1        0.0264
      5 C         138.2876  140.8011  164.9553 C.ar    1  UNL1        0.0015
      6 C         137.7253  140.3018  163.6573 C.ar    1  UNL1        0.0204
      7 C         138.4533  139.2441  162.8820 C.ar    1  UNL1        0.0989
      8 N         139.7436  138.6856  163.4047 N.ar    1  UNL1       -0.2426
      9 C         140.3059  139.1847  164.7026 C.ar    1  UNL1        0.0972
     10 C         140.7024  141.2408  168.0738 C.ar    1  UNL1        0.0264
     11 C         140.5189  142.6765  168.4679 C.ar    1  UNL1        0.0015
     12 C         141.0812  143.1756  169.7659 C.ar    1  UNL1        0.0204
     13 C         141.8270  142.2392  170.6697 C.ar    1  UNL1        0.0989
     14 N         142.0105  140.8036  170.2756 N.ar    1  UNL1       -0.2426
     15 C         141.4482  140.3044  168.9776 C.ar    1  UNL1        0.0972
     16 C         141.1012  141.6141  166.0240 C.3     1  UNL1        0.1130
     17 C         140.5851  142.7146  165.1451 C.ar    1  UNL1       -0.0049
     18 C         139.6212  143.7238  165.6947 C.ar    1  UNL1       -0.0029
     19 C         139.1051  144.8243  164.8158 C.ar    1  UNL1       -0.0003
     20 C         139.5531  144.9156  163.3872 C.ar    1  UNL1       -0.0000
     21 C         140.5171  143.9064  162.8374 C.ar    1  UNL1       -0.0003
     22 C         141.0332  142.8058  163.7164 C.ar    1  UNL1       -0.0029
     23 N         142.5783  141.3860  166.1511 N.3     1  UNL1       -0.2679
     24 C         144.2405  143.2722  165.4960 C.3     1  UNL1        0.0188
     25 C         143.4806  142.5173  166.5460 C.3     1  UNL1        0.0725
     26 C         143.1531  140.0266  165.8833 C.3     1  UNL1        0.0725
     27 C         143.9315  139.7759  164.6260 C.3     1  UNL1        0.0188
@<TRIPOS>BOND
     1    24    25    1
     2    25    23    1
     3    23    26    1
     4    26    27    1
     5    23    16    1
     6    16    17    1
     7    17    18   ar
     8    18    19   ar
     9    19    20   ar
    10    20    21   ar
    11    21    22   ar
    12    16     1    1
    13     1     2    1
    14     1     4    1
    15     4     5   ar
    16     5     6   ar
    17     6     7   ar
    18     7     8   ar
    19     8     9   ar
    20     1    10    1
    21    10    11   ar
    22    11    12   ar
    23    12    13   ar
    24    13    14   ar
    25    14    15   ar
    26    22    17   ar
    27     9     4   ar
    28    15    10   ar
    29     2     3    1
@<TRIPOS>MOLECULE
*****
 27 29 0 0 0
SMALL
GASTEIGER

@<TRIPOS>ATOM
      1 C         140.2438  141.9943  166.2042 C.3     1  UNL1        0.1456
      2 O         140.0110  143.2906  166.9221 O.3     1  UNL1       -0.3768
      3 H         140.2841  143.2008  167.8485 H       1  UNL1        0.2112
      4 C         140.7741  141.3885  167.4699 C.ar    1  UNL1        0.0264
      5 C         142.1500  141.7420  167.9515 C.ar    1  UNL1        0.0015
      6 C         142.6802  141.1362  169.2172 C.ar    1  UNL1        0.0204
      7 C         141.8345  140.1771  170.0012 C.ar    1  UNL1        0.0989
      8 N         140.4586  139.8236  169.5196 N.ar    1  UNL1       -0.2426
      9 C         139.9284  140.4293  168.2540 C.ar    1  UNL1        0.0972
     10 C         139.7136  142.6000  164.9386 C.ar    1  UNL1        0.0264
     11 C         138.2437  142.8592  164.7895 C.ar    1  UNL1        0.0015
     12 C         137.7135  143.4649  163.5238 C.ar    1  UNL1        0.0204
     13 C         138.6532  143.8114  162.4072 C.ar    1  UNL1        0.0989
     14 N         140.1231  143.5522  162.5562 N.ar    1  UNL1       -0.2426
     15 C         140.6533  142.9465  163.8218 C.ar    1  UNL1        0.0972
     16 C         140.4766  140.6980  165.4863 C.3     1  UNL1        0.1130
     17 C         141.8676  140.1518  165.3564 C.ar    1  UNL1       -0.0049
     18 C         142.2108  138.8223  165.9601 C.ar    1  UNL1       -0.0029
     19 C         143.6018  138.2762  165.8302 C.ar    1  UNL1       -0.0003
     20 C         144.6496  139.0596  165.0965 C.ar    1  UNL1       -0.0000
     21 C         144.3064  140.3892  164.4927 C.ar    1  UNL1       -0.0003
     22 C         142.9154  140.9353  164.6226 C.ar    1  UNL1       -0.0029
     23 N         139.3183  139.9477  164.8983 N.3     1  UNL1       -0.2679
     24 C         138.0516  139.7895  162.6356 C.3     1  UNL1        0.0188
     25 C         139.3071  139.6112  163.4366 C.3     1  UNL1        0.0725
     26 C         138.1714  139.5341  165.7720 C.3     1  UNL1        0.0725
     27 C         138.0722  138.1190  166.2593 C.3     1  UNL1        0.0188
@<TRIPOS>BOND
     1    24    25    1
     2    25    23    1
     3    23    26    1
     4    26    27    1
     5    23    16    1
     6    16    17    1
     7    17    18   ar
     8    18    19   ar
     9    19    20   ar
    10    20    21   ar
    11    21    22   ar
    12    16     1    1
    13     1     2    1
    14     1     4    1
    15     4     5   ar
    16     5     6   ar
    17     6     7   ar
    18     7     8   ar
    19     8     9   ar
    20     1    10    1
    21    10    11   ar
    22    11    12   ar
    23    12    13   ar
    24    13    14   ar
    25    14    15   ar
    26    22    17   ar
    27     9     4   ar
    28    15    10   ar
    29     2     3    1
@<TRIPOS>MOLECULE
*****
 27 29 0 0 0
SMALL
GASTEIGER

@<TRIPOS>ATOM
      1 C         141.7442  140.0478  165.3880 C.3     1  UNL1        0.1456
      2 O         142.4309  139.4437  166.5770 O.3     1  UNL1       -0.3768
      3 H         143.3758  139.6615  166.5498 H       1  UNL1        0.2112
      4 C         143.0511  140.6186  164.9231 C.ar    1  UNL1        0.0264
      5 C         143.2957  142.0963  165.0051 C.ar    1  UNL1        0.0015
      6 C         144.6027  142.6670  164.5402 C.ar    1  UNL1        0.0204
      7 C         145.6650  141.7602  163.9933 C.ar    1  UNL1        0.0989
      8 N         145.4204  140.2826  163.9113 N.ar    1  UNL1       -0.2426
      9 C         144.1135  139.7118  164.3762 C.ar    1  UNL1        0.0972
     10 C         140.4373  139.4770  165.8528 C.ar    1  UNL1        0.0264
     11 C         139.7541  140.0519  167.0582 C.ar    1  UNL1        0.0015
     12 C         138.4472  139.4810  167.5230 C.ar    1  UNL1        0.0204
     13 C         137.8234  138.3353  166.7826 C.ar    1  UNL1        0.0989
     14 N         138.5066  137.7605  165.5772 N.ar    1  UNL1       -0.2426
     15 C         139.8135  138.3313  165.1124 C.ar    1  UNL1        0.0972
     16 C         141.0575  140.6518  164.1991 C.3     1  UNL1        0.1130
     17 C         140.0126  141.7102  164.3941 C.ar    1  UNL1       -0.0049
     18 C         140.3394  142.9534  165.1672 C.ar    1  UNL1       -0.0029
     19 C         139.2946  144.0118  165.3622 C.ar    1  UNL1       -0.0003
     20 C         137.9229  143.8270  164.7841 C.ar    1  UNL1       -0.0000
     21 C         137.5960  142.5838  164.0110 C.ar    1  UNL1       -0.0003
     22 C         138.6408  141.5254  163.8160 C.ar    1  UNL1       -0.0029
     23 N         141.4156  140.1975  162.8151 N.3     1  UNL1       -0.2679
     24 C         140.4071  138.2086  161.4820 C.3     1  UNL1        0.0188
     25 C         141.3976  138.7361  162.4773 C.3     1  UNL1        0.0725
     26 C         141.7918  141.2045  161.7690 C.3     1  UNL1        0.0725
     27 C         143.1428  141.1430  161.1203 C.3     1  UNL1        0.0188
@<TRIPOS>BOND
     1    24    25    1
     2    25    23    1
     3    23    26    1
     4    26    27    1
     5    23    16    1
     6    16    17    1
     7    17    18   ar
     8    18    19   ar
     9    19    20   ar
    10    20    21   ar
    11    21    22   ar
    12    16     1    1
    13     1     2    1
    14     1     4    1
    15     4     5   ar
    16     5     6   ar
    17     6     7   ar
    18     7     8   ar
    19     8     9   ar
    20     1    10    1
    21    10    11   ar
    22    11    12   ar
    23    12    13   ar
    24    13    14   ar
    25    14    15   ar
    26    22    17   ar
    27     9     4   ar
    28    15    10   ar
    29     2     3    1
@<TRIPOS>MOLECULE
*****
 27 29 0 0 0
SMALL
GASTEIGER

@<TRIPOS>ATOM
      1 C         142.1788  141.7418  166.4928 C.3     1  UNL1        0.1456
      2 O         143.4244  142.0950  167.2503 O.3     1  UNL1       -0.3768
      3 H         144.0921  142.4349  166.6342 H       1  UNL1        0.2112
      4 C         142.8335  142.1743  165.2144 C.ar    1  UNL1        0.0264
      5 C         143.0453  143.6331  164.9364 C.ar    1  UNL1        0.0015
      6 C         143.7000  144.0656  163.6580 C.ar    1  UNL1        0.0204
      7 C         144.1429  143.0394  162.6576 C.ar    1  UNL1        0.0989
      8 N         143.9311  141.5807  162.9356 N.ar    1  UNL1       -0.2426
      9 C         143.2764  141.1481  164.2140 C.ar    1  UNL1        0.0972
     10 C         141.5241  141.3093  167.7712 C.ar    1  UNL1        0.0264
     11 C         140.4304  142.1412  168.3725 C.ar    1  UNL1        0.0015
     12 C         139.7757  141.7086  169.6510 C.ar    1  UNL1        0.0204
     13 C         140.2148  140.4441  170.3280 C.ar    1  UNL1        0.0989
     14 N         141.3085  139.6122  169.7266 N.ar    1  UNL1       -0.2426
     15 C         141.9632  140.0448  168.4482 C.ar    1  UNL1        0.0972
     16 C         140.9332  141.3886  165.7354 C.3     1  UNL1        0.1130
     17 C         140.1507  142.4608  165.0369 C.ar    1  UNL1       -0.0049
     18 C         139.8588  142.3416  163.5704 C.ar    1  UNL1       -0.0029
     19 C         139.0762  143.4139  162.8719 C.ar    1  UNL1       -0.0003
     20 C         138.5857  144.6053  163.6398 C.ar    1  UNL1       -0.0000
     21 C         138.8776  144.7246  165.1063 C.ar    1  UNL1       -0.0003
     22 C         139.6601  143.6523  165.8049 C.ar    1  UNL1       -0.0029
     23 N         140.4701  139.9630  165.6765 N.3     1  UNL1       -0.2679
     24 C         138.5185  139.1567  167.1901 C.3     1  UNL1        0.0188
     25 C         139.0172  139.6383  165.8600 C.3     1  UNL1        0.0725
     26 C         141.4598  138.8623  165.4341 C.3     1  UNL1        0.0725
     27 C         141.0339  137.6151  164.7178 C.3     1  UNL1        0.0188
@<TRIPOS>BOND
     1    24    25    1
     2    25    23    1
     3    23    26    1
     4    26    27    1
     5    23    16    1
     6    16    17    1
     7    17    18   ar
     8    18    19   ar
     9    19    20   ar
    10    20    21   ar
    11    21    22   ar
    12    16     1    1
    13     1     2    1
    14     1     4    1
    15     4     5   ar
    16     5     6   ar
    17     6     7   ar
    18     7     8   ar
    19     8     9   ar
    20     1    10    1
    21    10    11   ar
    22    11    12   ar
    23    12    13   ar
    24    13    14   ar
    25    14    15   ar
    26    22    17   ar
    27     9     4   ar
    28    15    10   ar
    29     2     3    1
