@<TRIPOS>MOLECULE
*****
 24 26 0 0 0
SMALL
GASTEIGER

@<TRIPOS>ATOM
      1 P         141.2479  141.2845  164.2178 P.3     1  UNL1        0.2266
      2 O         140.0610  141.9685  163.6067 O.2     1  UNL1       -0.2903
      3 C         142.1394  142.3798  163.7123 C.ar    1  UNL1        0.0498
      4 C         142.5878  143.4700  164.6398 C.ar    1  UNL1        0.0046
      5 C         143.4793  144.5653  164.1343 C.ar    1  UNL1        0.0002
      6 C         143.9224  144.5705  162.7013 C.ar    1  UNL1        0.0000
      7 C         143.4739  143.4803  161.7738 C.ar    1  UNL1        0.0002
      8 C         142.5825  142.3849  162.2793 C.ar    1  UNL1        0.0046
      9 C         140.3565  140.1892  164.7233 C.ar    1  UNL1        0.0498
     10 C         140.4806  138.8029  164.1641 C.ar    1  UNL1        0.0046
     11 C         139.5892  137.7076  164.6696 C.ar    1  UNL1        0.0002
     12 C         138.5735  137.9985  165.7343 C.ar    1  UNL1        0.0000
     13 C         138.4493  139.3848  166.2936 C.ar    1  UNL1        0.0002
     14 C         139.3408  140.4801  165.7881 C.ar    1  UNL1        0.0046
     15 N         142.4348  140.6005  164.8289 N.pl3   1  UNL1       -0.2590
     16 C         142.5739  140.5299  166.3208 C.ar    1  UNL1        0.0919
     17 C         142.5469  141.7881  167.1370 C.ar    1  UNL1        0.1170
     18 N         142.6859  141.7174  168.6288 N.ar    1  UNL1       -0.2211
     19 C         142.8519  140.3885  169.3045 C.ar    1  UNL1        0.1990
     20 N         142.8788  139.1303  168.4884 N.ar    1  UNL1       -0.2211
     21 C         142.7398  139.2010  166.9965 C.ar    1  UNL1        0.1170
     22 C         143.4827  139.9872  163.9482 C.3     1  UNL1        0.0975
     23 C         145.6985  141.3432  163.9103 C.3     1  UNL1        0.0018
     24 C         144.9334  140.1156  164.3073 C.3     1  UNL1        0.0218
@<TRIPOS>BOND
     1    23    24    1
     2    24    22    1
     3    22    15    1
     4    15    16    1
     5    16    17   ar
     6    17    18   ar
     7    18    19   ar
     8    19    20   ar
     9    20    21   ar
    10    15     1    1
    11     1     2    2
    12     1     3    1
    13     3     4   ar
    14     4     5   ar
    15     5     6   ar
    16     6     7   ar
    17     7     8   ar
    18     1     9    1
    19     9    10   ar
    20    10    11   ar
    21    11    12   ar
    22    12    13   ar
    23    13    14   ar
    24    21    16   ar
    25     8     3   ar
    26    14     9   ar
@<TRIPOS>MOLECULE
*****
 24 26 0 0 0
SMALL
GASTEIGER

@<TRIPOS>ATOM
      1 P         141.2537  141.2903  164.2080 P.3     1  UNL1        0.2266
      2 O         140.0671  141.9723  163.5939 O.2     1  UNL1       -0.2903
      3 C         140.3626  140.1939  164.7119 C.ar    1  UNL1        0.0498
      4 C         139.3468  140.4829  165.7770 C.ar    1  UNL1        0.0046
      5 C         138.4558  139.3864  166.2809 C.ar    1  UNL1        0.0002
      6 C         138.5806  138.0010  165.7197 C.ar    1  UNL1        0.0000
      7 C         139.5965  137.7120  164.6546 C.ar    1  UNL1        0.0002
      8 C         140.4875  138.8085  164.1507 C.ar    1  UNL1        0.0046
      9 C         142.1447  142.3867  163.7041 C.ar    1  UNL1        0.0498
     10 C         142.5992  143.4714  164.6352 C.ar    1  UNL1        0.0046
     11 C         143.4902  144.5678  164.1312 C.ar    1  UNL1        0.0002
     12 C         143.9267  144.5796  162.6962 C.ar    1  UNL1        0.0000
     13 C         143.4722  143.4950  161.7652 C.ar    1  UNL1        0.0002
     14 C         142.5812  142.3985  162.2691 C.ar    1  UNL1        0.0046
     15 N         142.4402  140.6083  164.8220 N.pl3   1  UNL1       -0.2590
     16 C         142.5736  140.5344  166.3143 C.ar    1  UNL1        0.0919
     17 C         142.5384  141.7904  167.1335 C.ar    1  UNL1        0.1170
     18 N         142.6718  141.7165  168.6257 N.ar    1  UNL1       -0.2211
     19 C         142.8404  140.3865  169.2987 C.ar    1  UNL1        0.1990
     20 N         142.8755  139.1305  168.4795 N.ar    1  UNL1       -0.2211
     21 C         142.7421  139.2045  166.9873 C.ar    1  UNL1        0.1170
     22 C         143.4932  140.0002  163.9439 C.3     1  UNL1        0.0975
     23 C         145.7047  141.3632  163.8992 C.3     1  UNL1        0.0018
     24 C         144.9425  140.1370  164.3059 C.3     1  UNL1        0.0218
@<TRIPOS>BOND
     1    23    24    1
     2    24    22    1
     3    22    15    1
     4    15    16    1
     5    16    17   ar
     6    17    18   ar
     7    18    19   ar
     8    19    20   ar
     9    20    21   ar
    10    15     1    1
    11     1     2    2
    12     1     3    1
    13     3     4   ar
    14     4     5   ar
    15     5     6   ar
    16     6     7   ar
    17     7     8   ar
    18     1     9    1
    19     9    10   ar
    20    10    11   ar
    21    11    12   ar
    22    12    13   ar
    23    13    14   ar
    24    21    16   ar
    25     8     3   ar
    26    14     9   ar
@<TRIPOS>MOLECULE
*****
 24 26 0 0 0
SMALL
GASTEIGER

@<TRIPOS>ATOM
      1 P         141.7296  140.1160  165.3764 P.3     1  UNL1        0.2266
      2 O         142.4158  139.5543  166.5862 O.2     1  UNL1       -0.2903
      3 C         143.0172  140.7501  164.9405 C.ar    1  UNL1        0.0498
      4 C         144.0431  139.9373  164.2078 C.ar    1  UNL1        0.0046
      5 C         145.3307  140.5714  163.7719 C.ar    1  UNL1        0.0002
      6 C         145.5923  142.0182  164.0685 C.ar    1  UNL1        0.0000
      7 C         144.5664  142.8310  164.8011 C.ar    1  UNL1        0.0002
      8 C         143.2788  142.1970  165.2371 C.ar    1  UNL1        0.0046
      9 C         140.4420  139.4820  165.8124 C.ar    1  UNL1        0.0498
     10 C         139.8797  138.3221  165.0453 C.ar    1  UNL1        0.0046
     11 C         138.5921  137.6880  165.4813 C.ar    1  UNL1        0.0002
     12 C         137.8668  138.2138  166.6843 C.ar    1  UNL1        0.0000
     13 C         138.4291  139.3737  167.4514 C.ar    1  UNL1        0.0002
     14 C         139.7167  140.0078  167.0155 C.ar    1  UNL1        0.0046
     15 N         141.0433  140.6777  164.1666 N.pl3   1  UNL1       -0.2590
     16 C         139.9943  141.7383  164.3242 C.ar    1  UNL1        0.0919
     17 C         140.3304  143.0298  165.0090 C.ar    1  UNL1        0.1170
     18 N         139.2814  144.0903  165.1666 N.ar    1  UNL1       -0.2211
     19 C         137.8962  143.8593  164.6393 C.ar    1  UNL1        0.1990
     20 N         137.5601  142.5678  163.9545 N.ar    1  UNL1       -0.2211
     21 C         138.6091  141.5073  163.7970 C.ar    1  UNL1        0.1170
     22 C         141.4061  140.1789  162.7993 C.3     1  UNL1        0.0975
     23 C         142.5468  142.1622  161.5682 C.3     1  UNL1        0.0018
     24 C         141.4586  141.1325  161.6426 C.3     1  UNL1        0.0218
@<TRIPOS>BOND
     1    23    24    1
     2    24    22    1
     3    22    15    1
     4    15    16    1
     5    16    17   ar
     6    17    18   ar
     7    18    19   ar
     8    19    20   ar
     9    20    21   ar
    10    15     1    1
    11     1     2    2
    12     1     3    1
    13     3     4   ar
    14     4     5   ar
    15     5     6   ar
    16     6     7   ar
    17     7     8   ar
    18     1     9    1
    19     9    10   ar
    20    10    11   ar
    21    11    12   ar
    22    12    13   ar
    23    13    14   ar
    24    21    16   ar
    25     8     3   ar
    26    14     9   ar
@<TRIPOS>MOLECULE
*****
 24 26 0 0 0
SMALL
GASTEIGER

@<TRIPOS>ATOM
      1 P         141.7258  140.1293  165.3822 P.3     1  UNL1        0.2266
      2 O         142.4075  139.5809  166.6006 O.2     1  UNL1       -0.2903
      3 C         140.4404  139.4867  165.8121 C.ar    1  UNL1        0.0498
      4 C         139.8891  138.3237  165.0418 C.ar    1  UNL1        0.0046
      5 C         138.6037  137.6811  165.4717 C.ar    1  UNL1        0.0002
      6 C         137.8697  138.2014  166.6718 C.ar    1  UNL1        0.0000
      7 C         138.4211  139.3644  167.4421 C.ar    1  UNL1        0.0002
      8 C         139.7064  140.0071  167.0122 C.ar    1  UNL1        0.0046
      9 C         143.0112  140.7719  164.9523 C.ar    1  UNL1        0.0498
     10 C         144.0401  139.9696  164.2123 C.ar    1  UNL1        0.0046
     11 C         145.3255  140.6123  163.7824 C.ar    1  UNL1        0.0002
     12 C         145.5820  142.0572  164.0925 C.ar    1  UNL1        0.0000
     13 C         144.5532  142.8595  164.8326 C.ar    1  UNL1        0.0002
     14 C         143.2678  142.2169  165.2625 C.ar    1  UNL1        0.0046
     15 N         141.0442  140.6778  164.1638 N.pl3   1  UNL1       -0.2590
     16 C         139.9917  141.7372  164.3061 C.ar    1  UNL1        0.0919
     17 C         140.3230  143.0385  164.9745 C.ar    1  UNL1        0.1170
     18 N         139.2706  144.0977  165.1169 N.ar    1  UNL1       -0.2211
     19 C         137.8869  143.8557  164.5908 C.ar    1  UNL1        0.1990
     20 N         137.5556  142.5544  163.9224 N.ar    1  UNL1       -0.2211
     21 C         138.6080  141.4952  163.7801 C.ar    1  UNL1        0.1170
     22 C         141.4148  140.1669  162.8031 C.3     1  UNL1        0.0975
     23 C         142.5071  142.1899  161.5928 C.3     1  UNL1        0.0018
     24 C         141.4680  141.1091  161.6370 C.3     1  UNL1        0.0218
@<TRIPOS>BOND
     1    23    24    1
     2    24    22    1
     3    22    15    1
     4    15    16    1
     5    16    17   ar
     6    17    18   ar
     7    18    19   ar
     8    19    20   ar
     9    20    21   ar
    10    15     1    1
    11     1     2    2
    12     1     3    1
    13     3     4   ar
    14     4     5   ar
    15     5     6   ar
    16     6     7   ar
    17     7     8   ar
    18     1     9    1
    19     9    10   ar
    20    10    11   ar
    21    11    12   ar
    22    12    13   ar
    23    13    14   ar
    24    21    16   ar
    25     8     3   ar
    26    14     9   ar
@<TRIPOS>MOLECULE
*****
 24 26 0 0 0
SMALL
GASTEIGER

@<TRIPOS>ATOM
      1 P         141.2557  140.4324  165.5271 P.3     1  UNL1        0.2266
      2 O         142.2088  139.3655  165.9779 O.2     1  UNL1       -0.2903
      3 C         142.4137  141.3210  165.1816 C.ar    1  UNL1        0.0498
      4 C         142.9950  141.2921  163.7992 C.ar    1  UNL1        0.0046
      5 C         144.1530  142.1807  163.4537 C.ar    1  UNL1        0.0002
      6 C         144.7297  143.0982  164.4907 C.ar    1  UNL1        0.0000
      7 C         144.1484  143.1272  165.8732 C.ar    1  UNL1        0.0002
      8 C         142.9904  142.2385  166.2186 C.ar    1  UNL1        0.0046
      9 C         140.0976  139.5437  165.8725 C.ar    1  UNL1        0.0498
     10 C         139.2130  139.8826  167.0355 C.ar    1  UNL1        0.0046
     11 C         138.0550  138.9940  167.3809 C.ar    1  UNL1        0.0002
     12 C         137.7816  137.7665  166.5634 C.ar    1  UNL1        0.0000
     13 C         138.6662  137.4276  165.4004 C.ar    1  UNL1        0.0002
     14 C         139.8242  138.3162  165.0550 C.ar    1  UNL1        0.0046
     15 N         140.3025  141.4992  165.0762 N.pl3   1  UNL1       -0.2590
     16 C         139.4569  141.2827  163.8563 C.ar    1  UNL1        0.0919
     17 C         137.9656  141.4185  163.9436 C.ar    1  UNL1        0.1170
     18 N         137.1201  141.2019  162.7238 N.ar    1  UNL1       -0.2211
     19 C         137.7658  140.8496  161.4165 C.ar    1  UNL1        0.1990
     20 N         139.2571  140.7138  161.3292 N.ar    1  UNL1       -0.2211
     21 C         140.1026  140.9303  162.5490 C.ar    1  UNL1        0.1170
     22 C         140.1949  142.7826  165.8452 C.3     1  UNL1        0.0975
     23 C         138.7109  144.8639  165.3806 C.3     1  UNL1        0.0018
     24 C         139.9591  144.0742  165.1197 C.3     1  UNL1        0.0218
@<TRIPOS>BOND
     1    23    24    1
     2    24    22    1
     3    22    15    1
     4    15    16    1
     5    16    17   ar
     6    17    18   ar
     7    18    19   ar
     8    19    20   ar
     9    20    21   ar
    10    15     1    1
    11     1     2    2
    12     1     3    1
    13     3     4   ar
    14     4     5   ar
    15     5     6   ar
    16     6     7   ar
    17     7     8   ar
    18     1     9    1
    19     9    10   ar
    20    10    11   ar
    21    11    12   ar
    22    12    13   ar
    23    13    14   ar
    24    21    16   ar
    25     8     3   ar
    26    14     9   ar
@<TRIPOS>MOLECULE
*****
 24 26 0 0 0
SMALL
GASTEIGER

@<TRIPOS>ATOM
      1 P         141.0429  140.5368  167.3147 P.3     1  UNL1        0.2266
      2 O         140.4251  139.6821  168.3814 O.2     1  UNL1       -0.2903
      3 C         141.5459  141.4831  168.3642 C.ar    1  UNL1        0.0498
      4 C         140.6787  142.6139  168.8321 C.ar    1  UNL1        0.0046
      5 C         141.1817  143.5602  169.8817 C.ar    1  UNL1        0.0002
      6 C         142.5520  143.3757  170.4632 C.ar    1  UNL1        0.0000
      7 C         143.4192  142.2448  169.9953 C.ar    1  UNL1        0.0002
      8 C         142.9162  141.2985  168.9458 C.ar    1  UNL1        0.0046
      9 C         140.5399  139.5905  166.2651 C.ar    1  UNL1        0.0498
     10 C         139.0735  139.5233  165.9566 C.ar    1  UNL1        0.0046
     11 C         138.5705  138.5770  164.9070 C.ar    1  UNL1        0.0002
     12 C         139.5338  137.6979  164.1661 C.ar    1  UNL1        0.0000
     13 C         141.0002  137.7650  164.4747 C.ar    1  UNL1        0.0002
     14 C         141.5032  138.7113  165.5242 C.ar    1  UNL1        0.0046
     15 N         141.6607  141.3914  166.2480 N.pl3   1  UNL1       -0.2590
     16 C         140.7858  142.1540  165.2976 C.ar    1  UNL1        0.0919
     17 C         139.8361  143.1909  165.8200 C.ar    1  UNL1        0.1170
     18 N         138.9613  143.9533  164.8696 N.ar    1  UNL1       -0.2211
     19 C         139.0361  143.6789  163.3968 C.ar    1  UNL1        0.1990
     20 N         139.9858  142.6420  162.8744 N.ar    1  UNL1       -0.2211
     21 C         140.8606  141.8796  163.8248 C.ar    1  UNL1        0.1170
     22 C         143.1533  141.4836  166.1316 C.3     1  UNL1        0.0975
     23 C         144.6091  142.9071  164.5178 C.3     1  UNL1        0.0018
     24 C         143.7985  142.7898  165.7744 C.3     1  UNL1        0.0218
@<TRIPOS>BOND
     1    23    24    1
     2    24    22    1
     3    22    15    1
     4    15    16    1
     5    16    17   ar
     6    17    18   ar
     7    18    19   ar
     8    19    20   ar
     9    20    21   ar
    10    15     1    1
    11     1     2    2
    12     1     3    1
    13     3     4   ar
    14     4     5   ar
    15     5     6   ar
    16     6     7   ar
    17     7     8   ar
    18     1     9    1
    19     9    10   ar
    20    10    11   ar
    21    11    12   ar
    22    12    13   ar
    23    13    14   ar
    24    21    16   ar
    25     8     3   ar
    26    14     9   ar
@<TRIPOS>MOLECULE
*****
 24 26 0 0 0
SMALL
GASTEIGER

@<TRIPOS>ATOM
      1 P         141.0474  140.4986  167.2961 P.3     1  UNL1        0.2266
      2 O         140.4336  139.6429  168.3642 O.2     1  UNL1       -0.2903
      3 C         140.5736  139.5332  166.2504 C.ar    1  UNL1        0.0498
      4 C         141.5634  138.6807  165.5132 C.ar    1  UNL1        0.0046
      5 C         141.0895  137.7152  164.4675 C.ar    1  UNL1        0.0002
      6 C         139.6260  137.6023  164.1591 C.ar    1  UNL1        0.0000
      7 C         138.6362  138.4548  164.8963 C.ar    1  UNL1        0.0002
      8 C         139.1100  139.4202  165.9420 C.ar    1  UNL1        0.0046
      9 C         141.5212  141.4641  168.3417 C.ar    1  UNL1        0.0498
     10 C         142.8771  141.2940  168.9603 C.ar    1  UNL1        0.0046
     11 C         143.3509  142.2594  170.0060 C.ar    1  UNL1        0.0002
     12 C         142.4688  143.3950  170.4331 C.ar    1  UNL1        0.0000
     13 C         141.1130  143.5651  169.8145 C.ar    1  UNL1        0.0002
     14 C         140.6392  142.5996  168.7688 C.ar    1  UNL1        0.0046
     15 N         141.6612  141.3543  166.2279 N.pl3   1  UNL1       -0.2590
     16 C         140.7834  142.0825  165.2535 C.ar    1  UNL1        0.0919
     17 C         139.7802  143.0813  165.7492 C.ar    1  UNL1        0.1170
     18 N         138.9024  143.8094  164.7749 N.ar    1  UNL1       -0.2211
     19 C         139.0278  143.5387  163.3049 C.ar    1  UNL1        0.1990
     20 N         140.0310  142.5398  162.8092 N.ar    1  UNL1       -0.2211
     21 C         140.9088  141.8117  163.7835 C.ar    1  UNL1        0.1170
     22 C         143.1528  141.4819  166.1340 C.3     1  UNL1        0.0975
     23 C         144.5823  142.9774  164.5623 C.3     1  UNL1        0.0018
     24 C         143.7734  142.8096  165.8143 C.3     1  UNL1        0.0218
@<TRIPOS>BOND
     1    23    24    1
     2    24    22    1
     3    22    15    1
     4    15    16    1
     5    16    17   ar
     6    17    18   ar
     7    18    19   ar
     8    19    20   ar
     9    20    21   ar
    10    15     1    1
    11     1     2    2
    12     1     3    1
    13     3     4   ar
    14     4     5   ar
    15     5     6   ar
    16     6     7   ar
    17     7     8   ar
    18     1     9    1
    19     9    10   ar
    20    10    11   ar
    21    11    12   ar
    22    12    13   ar
    23    13    14   ar
    24    21    16   ar
    25     8     3   ar
    26    14     9   ar
@<TRIPOS>MOLECULE
*****
 24 26 0 0 0
SMALL
GASTEIGER

@<TRIPOS>ATOM
      1 P         140.9820  141.4282  164.7804 P.3     1  UNL1        0.2266
      2 O         140.0614  141.7854  163.6513 O.2     1  UNL1       -0.2903
      3 C         140.1512  140.2143  165.0738 C.ar    1  UNL1        0.0498
      4 C         139.1262  140.2536  166.1683 C.ar    1  UNL1        0.0046
      5 C         138.2954  139.0397  166.4617 C.ar    1  UNL1        0.0002
      6 C         138.4895  137.7864  165.6606 C.ar    1  UNL1        0.0000
      7 C         139.5145  137.7472  164.5662 C.ar    1  UNL1        0.0002
      8 C         140.3453  138.9611  164.2728 C.ar    1  UNL1        0.0046
      9 C         141.8128  142.6422  164.4870 C.ar    1  UNL1        0.0498
     10 C         143.3020  142.5182  164.3565 C.ar    1  UNL1        0.0046
     11 C         144.1328  143.7321  164.0631 C.ar    1  UNL1        0.0002
     12 C         143.4745  145.0700  163.9002 C.ar    1  UNL1        0.0000
     13 C         141.9854  145.1940  164.0308 C.ar    1  UNL1        0.0002
     14 C         141.1546  143.9801  164.3242 C.ar    1  UNL1        0.0046
     15 N         141.9026  141.0711  165.9096 N.pl3   1  UNL1       -0.2590
     16 C         141.8328  141.8287  167.2024 C.ar    1  UNL1        0.0919
     17 C         143.0669  142.0032  168.0370 C.ar    1  UNL1        0.1170
     18 N         142.9970  142.7608  169.3297 N.ar    1  UNL1       -0.2211
     19 C         141.6931  143.3437  169.7879 C.ar    1  UNL1        0.1990
     20 N         140.4590  143.1691  168.9534 N.ar    1  UNL1       -0.2211
     21 C         140.5289  142.4116  167.6606 C.ar    1  UNL1        0.1170
     22 C         142.8929  139.9565  165.7460 C.3     1  UNL1        0.0975
     23 C         144.0463  137.8424  166.7209 C.3     1  UNL1        0.0018
     24 C         142.9033  138.8138  166.7177 C.3     1  UNL1        0.0218
@<TRIPOS>BOND
     1    23    24    1
     2    24    22    1
     3    22    15    1
     4    15    16    1
     5    16    17   ar
     6    17    18   ar
     7    18    19   ar
     8    19    20   ar
     9    20    21   ar
    10    15     1    1
    11     1     2    2
    12     1     3    1
    13     3     4   ar
    14     4     5   ar
    15     5     6   ar
    16     6     7   ar
    17     7     8   ar
    18     1     9    1
    19     9    10   ar
    20    10    11   ar
    21    11    12   ar
    22    12    13   ar
    23    13    14   ar
    24    21    16   ar
    25     8     3   ar
    26    14     9   ar
@<TRIPOS>MOLECULE
*****
 24 26 0 0 0
SMALL
GASTEIGER

@<TRIPOS>ATOM
      1 P         141.7042  140.0107  165.3508 P.3     1  UNL1        0.2266
      2 O         142.4261  139.2652  166.4340 O.2     1  UNL1       -0.2903
      3 C         142.9915  140.6632  164.9420 C.ar    1  UNL1        0.0498
      4 C         143.2100  142.1231  165.2084 C.ar    1  UNL1        0.0046
      5 C         144.4972  142.7757  164.7996 C.ar    1  UNL1        0.0002
      6 C         145.5660  141.9684  164.1245 C.ar    1  UNL1        0.0000
      7 C         145.3476  140.5085  163.8581 C.ar    1  UNL1        0.0002
      8 C         144.0603  139.8559  164.2669 C.ar    1  UNL1        0.0046
      9 C         140.4170  139.3581  165.7596 C.ar    1  UNL1        0.0498
     10 C         139.6340  139.9036  166.9168 C.ar    1  UNL1        0.0046
     11 C         138.3467  139.2510  167.3256 C.ar    1  UNL1        0.0002
     12 C         137.8424  138.0529  166.5771 C.ar    1  UNL1        0.0000
     13 C         138.6254  137.5075  165.4199 C.ar    1  UNL1        0.0002
     14 C         139.9127  138.1600  165.0111 C.ar    1  UNL1        0.0046
     15 N         140.9824  140.7561  164.2676 N.pl3   1  UNL1       -0.2590
     16 C         141.2878  140.4684  162.8275 C.ar    1  UNL1        0.0919
     17 C         141.7859  141.5646  161.9329 C.ar    1  UNL1        0.1170
     18 N         142.0914  141.2769  160.4929 N.ar    1  UNL1       -0.2211
     19 C         141.8987  139.8929  159.9473 C.ar    1  UNL1        0.1990
     20 N         141.4006  138.7967  160.8418 N.ar    1  UNL1       -0.2211
     21 C         141.0951  139.0845  162.2819 C.ar    1  UNL1        0.1170
     22 C         139.9551  141.7892  164.6246 C.3     1  UNL1        0.0975
     23 C         137.7130  140.8639  163.6936 C.3     1  UNL1        0.0018
     24 C         138.7344  141.9597  163.7696 C.3     1  UNL1        0.0218
@<TRIPOS>BOND
     1    23    24    1
     2    24    22    1
     3    22    15    1
     4    15    16    1
     5    16    17   ar
     6    17    18   ar
     7    18    19   ar
     8    19    20   ar
     9    20    21   ar
    10    15     1    1
    11     1     2    2
    12     1     3    1
    13     3     4   ar
    14     4     5   ar
    15     5     6   ar
    16     6     7   ar
    17     7     8   ar
    18     1     9    1
    19     9    10   ar
    20    10    11   ar
    21    11    12   ar
    22    12    13   ar
    23    13    14   ar
    24    21    16   ar
    25     8     3   ar
    26    14     9   ar
