@<TRIPOS>MOLECULE
*****
 41 45 0 0 0
SMALL
GASTEIGER

@<TRIPOS>ATOM
      1 N         143.9355  139.1481  159.3303 N.am    1  UNL1       -0.3018
      2 C         142.7995  138.7426  158.4386 C.2     1  UNL1        0.2425
      3 O         141.4486  138.4602  159.0264 O.2     1  UNL1       -0.2733
      4 H         144.8221  139.3335  158.9446 H       1  UNL1        0.1495
      5 N         143.4166  139.4454  162.9020 N.3     1  UNL1       -0.2711
      6 C         143.0855  138.4141  161.8643 C.3     1  UNL1        0.0933
      7 C         143.7206  139.2713  160.8098 C.3     1  UNL1        0.1035
      8 C         144.0517  140.3025  161.8474 C.3     1  UNL1        0.0933
      9 C         142.7718  139.8147  167.3402 C.3     1  UNL1        0.1232
     10 O         143.0243  139.0497  168.6056 O.3     1  UNL1       -0.3812
     11 C         142.3174  140.9107  166.4225 C.3     1  UNL1        0.0341
     12 C         142.5323  140.7876  164.9431 C.3     1  UNL1        0.0188
     13 C         143.2017  139.5685  164.3814 C.3     1  UNL1        0.0578
     14 C         143.6561  138.4724  165.2990 C.3     1  UNL1        0.0188
     15 C         143.4412  138.5955  166.7784 C.3     1  UNL1        0.0341
     16 H         142.6914  139.5574  169.3621 H       1  UNL1        0.2107
     17 C         140.2576  141.4534  169.9369 C.ar    1  UNL1        0.2247
     18 C         141.0267  142.6752  170.3438 C.ar    1  UNL1        0.0577
     19 C         142.3776  142.9435  169.7495 C.ar    1  UNL1        0.0061
     20 C         142.9593  141.9899  168.7483 C.ar    1  UNL1        0.0173
     21 C         142.1901  140.7681  168.3414 C.ar    1  UNL1        0.0861
     22 N         140.8392  140.4998  168.9357 N.ar    1  UNL1       -0.2137
     23 C         138.1240  139.9800  170.1011 C.3     1  UNL1        0.2542
     24 O         138.9067  141.1851  170.5312 O.3     1  UNL1       -0.4561
     25 C         143.0143  138.6194  156.9593 C.3     1  UNL1        0.1747
     26 N         143.7033  137.4103  156.3995 N.pl3   1  UNL1       -0.3106
     27 H         144.5609  137.1121  156.7801 H       1  UNL1        0.1486
     28 C         143.0856  136.6555  155.2599 C.ar    1  UNL1        0.1320
     29 N         142.3351  137.3930  154.1910 N.ar    1  UNL1       -0.2092
     30 C         141.7174  136.6382  153.0514 C.ar    1  UNL1        0.2000
     31 N         141.8503  135.1458  152.9808 N.ar    1  UNL1       -0.2239
     32 C         142.6009  134.4082  154.0497 C.ar    1  UNL1        0.0857
     33 C         142.7338  132.9157  153.9790 C.ar    1  UNL1        0.0192
     34 C         143.4843  132.1782  155.0479 C.ar    1  UNL1        0.0054
     35 C         144.1020  132.9330  156.1876 C.ar    1  UNL1        0.0716
     36 C         143.9691  134.4254  156.2582 C.ar    1  UNL1        0.0081
     37 C         143.2185  135.1630  155.1892 C.ar    1  UNL1        0.0491
     38 C         144.8526  132.1954  157.2565 C.3     1  UNL1        0.4186
     39 F         145.6032  131.4578  158.3254 F       1  UNL1       -0.1659
     40 F         144.5343  133.2879  158.2338 F       1  UNL1       -0.1659
     41 F         145.1709  131.1030  156.2791 F       1  UNL1       -0.1659
@<TRIPOS>BOND
     1    23    24    1
     2    24    17    1
     3    17    18   ar
     4    18    19   ar
     5    19    20   ar
     6    20    21   ar
     7    21     9    1
     8     9    10    1
     9     9    11    1
    10    11    12    1
    11    12    13    1
    12    13     5    1
    13     5     6    1
    14     6     7    1
    15     7     1    1
    16     1     2   am
    17     2     3    2
    18     2    25    1
    19    25    26    1
    20    26    28    1
    21    28    29   ar
    22    29    30   ar
    23    30    31   ar
    24    31    32   ar
    25    32    33   ar
    26    33    34   ar
    27    34    35   ar
    28    35    38    1
    29    38    39    1
    30    38    40    1
    31    38    41    1
    32    35    36   ar
    33    36    37   ar
    34     7     8    1
    35    13    14    1
    36    14    15    1
    37    21    22   ar
    38    22    17   ar
    39    15     9    1
    40     8     5    1
    41    37    28   ar
    42    37    32   ar
    43    10    16    1
    44     1     4    1
    45    26    27    1
@<TRIPOS>MOLECULE
*****
 41 45 0 0 0
SMALL
GASTEIGER

@<TRIPOS>ATOM
      1 N         141.0962  138.5373  159.3143 N.am    1  UNL1       -0.3018
      2 C         142.4808  138.6165  158.7429 C.2     1  UNL1        0.2425
      3 O         143.6486  138.8947  159.6424 O.2     1  UNL1       -0.2733
      4 H         140.3297  138.3547  158.7240 H       1  UNL1        0.1495
      5 N         140.5726  139.0177  162.8653 N.3     1  UNL1       -0.2711
      6 C         140.9470  137.8539  161.9963 C.3     1  UNL1        0.0933
      7 C         140.8793  138.7364  160.7852 C.3     1  UNL1        0.1035
      8 C         140.5049  139.9002  161.6542 C.3     1  UNL1        0.0933
      9 C         139.9220  139.6147  167.2778 C.3     1  UNL1        0.1232
     10 O         138.8262  139.5343  168.2990 O.3     1  UNL1       -0.3812
     11 C         141.2830  139.8288  166.6846 C.3     1  UNL1        0.0341
     12 C         141.4999  139.6298  165.2138 C.3     1  UNL1        0.0188
     13 C         140.3558  139.2167  164.3361 C.3     1  UNL1        0.0578
     14 C         138.9948  139.0026  164.9293 C.3     1  UNL1        0.0188
     15 C         138.7779  139.2015  166.4002 C.3     1  UNL1        0.0341
     16 H         139.1805  139.7641  169.1722 H       1  UNL1        0.2107
     17 C         140.9110  141.4447  170.6575 C.ar    1  UNL1        0.2247
     18 C         142.2127  140.7703  170.9747 C.ar    1  UNL1        0.0577
     19 C         142.7509  139.7106  170.0596 C.ar    1  UNL1        0.0061
     20 C         141.9873  139.3254  168.8273 C.ar    1  UNL1        0.0173
     21 C         140.6856  139.9999  168.5101 C.ar    1  UNL1        0.0861
     22 N         140.1474  141.0596  169.4253 N.ar    1  UNL1       -0.2137
     23 C         139.2143  143.3525  171.1387 C.3     1  UNL1        0.2542
     24 O         140.3729  142.5045  171.5727 O.3     1  UNL1       -0.4561
     25 C         142.6977  138.4175  157.2721 C.3     1  UNL1        0.1747
     26 N         143.3923  137.1838  156.7766 N.pl3   1  UNL1       -0.3106
     27 H         144.2002  136.8564  157.2341 H       1  UNL1        0.1486
     28 C         142.8558  136.4488  155.5841 C.ar    1  UNL1        0.1320
     29 N         142.0572  137.1825  154.5478 N.ar    1  UNL1       -0.2092
     30 C         141.5207  136.4476  153.3553 C.ar    1  UNL1        0.2000
     31 N         141.7828  134.9789  153.1992 N.ar    1  UNL1       -0.2239
     32 C         142.5814  134.2452  154.2355 C.ar    1  UNL1        0.0857
     33 C         142.8435  132.7766  154.0793 C.ar    1  UNL1        0.0192
     34 C         143.6420  132.0429  155.1156 C.ar    1  UNL1        0.0054
     35 C         144.1785  132.7778  156.3081 C.ar    1  UNL1        0.0716
     36 C         143.9164  134.2465  156.4643 C.ar    1  UNL1        0.0081
     37 C         143.1178  134.9802  155.4279 C.ar    1  UNL1        0.0491
     38 C         144.9771  132.0441  157.3444 C.3     1  UNL1        0.4186
     39 F         145.7757  131.3104  158.3808 F       1  UNL1       -0.1659
     40 F         144.6862  133.1300  158.3374 F       1  UNL1       -0.1659
     41 F         145.2680  130.9582  156.3514 F       1  UNL1       -0.1659
@<TRIPOS>BOND
     1    23    24    1
     2    24    17    1
     3    17    18   ar
     4    18    19   ar
     5    19    20   ar
     6    20    21   ar
     7    21     9    1
     8     9    10    1
     9     9    11    1
    10    11    12    1
    11    12    13    1
    12    13     5    1
    13     5     6    1
    14     6     7    1
    15     7     1    1
    16     1     2   am
    17     2     3    2
    18     2    25    1
    19    25    26    1
    20    26    28    1
    21    28    29   ar
    22    29    30   ar
    23    30    31   ar
    24    31    32   ar
    25    32    33   ar
    26    33    34   ar
    27    34    35   ar
    28    35    38    1
    29    38    39    1
    30    38    40    1
    31    38    41    1
    32    35    36   ar
    33    36    37   ar
    34     7     8    1
    35    13    14    1
    36    14    15    1
    37    21    22   ar
    38    22    17   ar
    39    15     9    1
    40     8     5    1
    41    37    28   ar
    42    37    32   ar
    43    10    16    1
    44     1     4    1
    45    26    27    1
@<TRIPOS>MOLECULE
*****
 41 45 0 0 0
SMALL
GASTEIGER

@<TRIPOS>ATOM
      1 N         140.4599  143.0454  159.4589 N.am    1  UNL1       -0.3018
      2 C         141.2286  144.3331  159.4931 C.2     1  UNL1        0.2425
      3 O         142.5892  144.4112  158.8663 O.2     1  UNL1       -0.2733
      4 H         139.5670  142.9941  159.8703 H       1  UNL1        0.1495
      5 N         141.8889  140.1255  157.8631 N.3     1  UNL1       -0.2711
      6 C         140.8292  141.1222  157.4976 C.3     1  UNL1        0.0933
      7 C         141.0519  141.8359  158.7979 C.3     1  UNL1        0.1035
      8 C         142.1115  140.8393  159.1635 C.3     1  UNL1        0.0933
      9 C         143.6645  136.4972  155.8802 C.3     1  UNL1        0.1232
     10 O         144.7453  136.1336  154.9056 O.3     1  UNL1       -0.3812
     11 C         142.5233  136.3435  156.8415 C.3     1  UNL1        0.0341
     12 C         141.9315  137.5529  157.5025 C.3     1  UNL1        0.0188
     13 C         142.4808  138.9161  157.2022 C.3     1  UNL1        0.0578
     14 C         143.6219  139.0698  156.2409 C.3     1  UNL1        0.0188
     15 C         144.2138  137.8603  155.5798 C.3     1  UNL1        0.0341
     16 H         144.7544  135.1723  154.7767 H       1  UNL1        0.2107
     17 C         143.9538  132.6617  156.8575 C.ar    1  UNL1        0.2247
     18 C         143.1427  132.0290  155.7657 C.ar    1  UNL1        0.0577
     19 C         142.5055  132.8858  154.7121 C.ar    1  UNL1        0.0061
     20 C         142.6795  134.3751  154.7503 C.ar    1  UNL1        0.0173
     21 C         143.4906  135.0078  155.8420 C.ar    1  UNL1        0.0861
     22 N         144.1277  134.1511  156.8957 N.ar    1  UNL1       -0.2137
     23 C         144.3647  130.3221  157.9099 C.3     1  UNL1        0.2542
     24 O         144.5909  131.8049  157.9111 O.3     1  UNL1       -0.4561
     25 C         140.6367  145.5425  160.1540 C.3     1  UNL1        0.1747
     26 N         140.7803  145.7337  161.6348 N.pl3   1  UNL1       -0.3106
     27 H         141.4506  146.3628  161.9872 H       1  UNL1        0.1486
     28 C         139.9024  144.9665  162.5787 C.ar    1  UNL1        0.1320
     29 N         138.4108  145.0283  162.4335 N.ar    1  UNL1       -0.2092
     30 C         137.5330  144.2611  163.3773 C.ar    1  UNL1        0.2000
     31 N         138.1469  143.4321  164.4663 N.ar    1  UNL1       -0.2239
     32 C         139.6385  143.3703  164.6115 C.ar    1  UNL1        0.0857
     33 C         140.2524  142.5412  165.7005 C.ar    1  UNL1        0.0192
     34 C         141.7440  142.4794  165.8456 C.ar    1  UNL1        0.0054
     35 C         142.6219  143.2467  164.9017 C.ar    1  UNL1        0.0716
     36 C         142.0080  144.0757  163.8128 C.ar    1  UNL1        0.0081
     37 C         140.5163  144.1375  163.6676 C.ar    1  UNL1        0.0491
     38 C         144.1135  143.1849  165.0469 C.3     1  UNL1        0.4186
     39 F         145.6053  143.1231  165.1921 F       1  UNL1       -0.1659
     40 F         144.0489  141.6865  165.0735 F       1  UNL1       -0.1659
     41 F         144.1782  144.6832  165.0204 F       1  UNL1       -0.1659
@<TRIPOS>BOND
     1    23    24    1
     2    24    17    1
     3    17    18   ar
     4    18    19   ar
     5    19    20   ar
     6    20    21   ar
     7    21     9    1
     8     9    10    1
     9     9    11    1
    10    11    12    1
    11    12    13    1
    12    13     5    1
    13     5     6    1
    14     6     7    1
    15     7     1    1
    16     1     2   am
    17     2     3    2
    18     2    25    1
    19    25    26    1
    20    26    28    1
    21    28    29   ar
    22    29    30   ar
    23    30    31   ar
    24    31    32   ar
    25    32    33   ar
    26    33    34   ar
    27    34    35   ar
    28    35    38    1
    29    38    39    1
    30    38    40    1
    31    38    41    1
    32    35    36   ar
    33    36    37   ar
    34     7     8    1
    35    13    14    1
    36    14    15    1
    37    21    22   ar
    38    22    17   ar
    39    15     9    1
    40     8     5    1
    41    37    28   ar
    42    37    32   ar
    43    10    16    1
    44     1     4    1
    45    26    27    1
@<TRIPOS>MOLECULE
*****
 41 45 0 0 0
SMALL
GASTEIGER

@<TRIPOS>ATOM
      1 N         143.2413  143.6600  160.8446 N.am    1  UNL1       -0.3018
      2 C         143.7022  143.5353  162.2666 C.2     1  UNL1        0.2425
      3 O         144.1778  142.2115  162.7876 O.2     1  UNL1       -0.2733
      4 H         142.9291  144.5288  160.5027 H       1  UNL1        0.1495
      5 N         143.2768  140.7649  158.6694 N.3     1  UNL1       -0.2711
      6 C         142.2124  141.5337  159.3946 C.3     1  UNL1        0.0933
      7 C         143.2560  142.4607  159.9436 C.3     1  UNL1        0.1035
      8 C         144.3204  141.6920  159.2184 C.3     1  UNL1        0.0933
      9 C         143.3208  137.1674  155.9664 C.3     1  UNL1        0.1232
     10 O         143.7523  136.7734  154.5849 O.3     1  UNL1       -0.3812
     11 C         142.7473  137.0602  157.3484 C.3     1  UNL1        0.0341
     12 C         142.7326  138.2594  158.2493 C.3     1  UNL1        0.0188
     13 C         143.2914  139.5657  157.7684 C.3     1  UNL1        0.0578
     14 C         143.8649  139.6729  156.3866 C.3     1  UNL1        0.0188
     15 C         143.8796  138.4737  155.4855 C.3     1  UNL1        0.0341
     16 H         143.5457  135.8373  154.4363 H       1  UNL1        0.2107
     17 C         143.1965  133.3057  156.8728 C.ar    1  UNL1        0.2247
     18 C         142.0939  132.8379  155.9698 C.ar    1  UNL1        0.0577
     19 C         141.4003  133.8133  155.0656 C.ar    1  UNL1        0.0061
     20 C         141.8093  135.2564  155.0645 C.ar    1  UNL1        0.0173
     21 C         142.9119  135.7242  155.9676 C.ar    1  UNL1        0.0861
     22 N         143.6055  134.7488  156.8718 N.ar    1  UNL1       -0.2137
     23 C         145.3796  132.1692  157.7049 C.3     1  UNL1        0.2542
     24 O         143.8901  132.3303  157.7770 O.3     1  UNL1       -0.4561
     25 C         143.6875  144.7344  163.1676 C.3     1  UNL1        0.1747
     26 N         142.4940  145.0066  164.0345 N.pl3   1  UNL1       -0.3106
     27 H         142.6142  145.1882  164.9947 H       1  UNL1        0.1486
     28 C         141.1174  145.0019  163.4386 C.ar    1  UNL1        0.1320
     29 N         140.7448  146.0217  162.4036 N.ar    1  UNL1       -0.2092
     30 C         139.3682  146.0170  161.8078 C.ar    1  UNL1        0.2000
     31 N         138.3644  144.9926  162.2469 N.ar    1  UNL1       -0.2239
     32 C         138.7370  143.9728  163.2818 C.ar    1  UNL1        0.0857
     33 C         137.7332  142.9484  163.7209 C.ar    1  UNL1        0.0192
     34 C         138.1058  141.9287  164.7559 C.ar    1  UNL1        0.0054
     35 C         139.4824  141.9333  165.3518 C.ar    1  UNL1        0.0716
     36 C         140.4863  142.9577  164.9127 C.ar    1  UNL1        0.0081
     37 C         140.1136  143.9775  163.8777 C.ar    1  UNL1        0.0491
     38 C         139.8551  140.9136  166.3868 C.3     1  UNL1        0.4186
     39 F         140.2278  139.8938  167.4218 F       1  UNL1       -0.1659
     40 F         138.5507  140.2081  166.1613 F       1  UNL1       -0.1659
     41 F         141.1594  141.6191  166.6123 F       1  UNL1       -0.1659
@<TRIPOS>BOND
     1    23    24    1
     2    24    17    1
     3    17    18   ar
     4    18    19   ar
     5    19    20   ar
     6    20    21   ar
     7    21     9    1
     8     9    10    1
     9     9    11    1
    10    11    12    1
    11    12    13    1
    12    13     5    1
    13     5     6    1
    14     6     7    1
    15     7     1    1
    16     1     2   am
    17     2     3    2
    18     2    25    1
    19    25    26    1
    20    26    28    1
    21    28    29   ar
    22    29    30   ar
    23    30    31   ar
    24    31    32   ar
    25    32    33   ar
    26    33    34   ar
    27    34    35   ar
    28    35    38    1
    29    38    39    1
    30    38    40    1
    31    38    41    1
    32    35    36   ar
    33    36    37   ar
    34     7     8    1
    35    13    14    1
    36    14    15    1
    37    21    22   ar
    38    22    17   ar
    39    15     9    1
    40     8     5    1
    41    37    28   ar
    42    37    32   ar
    43    10    16    1
    44     1     4    1
    45    26    27    1
@<TRIPOS>MOLECULE
*****
 41 45 0 0 0
SMALL
GASTEIGER

@<TRIPOS>ATOM
      1 N         143.5571  141.5850  162.1198 N.am    1  UNL1       -0.3018
      2 C         143.2480  141.8935  163.5548 C.2     1  UNL1        0.2425
      3 O         142.2105  142.9225  163.8940 O.2     1  UNL1       -0.2733
      4 H         144.2380  140.9097  161.8971 H       1  UNL1        0.1495
      5 N         141.7987  143.3242  159.4745 N.3     1  UNL1       -0.2711
      6 C         141.4472  142.8658  160.8588 C.3     1  UNL1        0.0933
      7 C         142.8287  142.3054  161.0240 C.3     1  UNL1        0.1035
      8 C         143.1802  142.7638  159.6398 C.3     1  UNL1        0.0933
      9 C         139.6136  145.4853  156.1874 C.3     1  UNL1        0.1232
     10 O         138.4747  145.2761  155.2339 O.3     1  UNL1       -0.3812
     11 C         140.7605  146.1505  156.8892 C.3     1  UNL1        0.0341
     12 C         141.4888  145.4301  157.9848 C.3     1  UNL1        0.0188
     13 C         141.0703  144.0446  158.3788 C.3     1  UNL1        0.0578
     14 C         139.9235  143.3794  157.6771 C.3     1  UNL1        0.0188
     15 C         139.1951  144.0998  156.5814 C.3     1  UNL1        0.0341
     16 H         138.3659  146.0663  154.6819 H       1  UNL1        0.2107
     17 C         138.8791  149.2759  155.2700 C.ar    1  UNL1        0.2247
     18 C         139.6825  149.4239  154.0119 C.ar    1  UNL1        0.0577
     19 C         140.4629  148.2590  153.4790 C.ar    1  UNL1        0.0061
     20 C         140.4399  146.9461  154.2042 C.ar    1  UNL1        0.0173
     21 C         139.6365  146.7981  155.4623 C.ar    1  UNL1        0.0861
     22 N         138.8561  147.9631  155.9952 N.ar    1  UNL1       -0.2137
     23 C         138.4530  151.8363  155.3822 C.3     1  UNL1        0.2542
     24 O         138.0987  150.4409  155.8029 O.3     1  UNL1       -0.4561
     25 C         143.9763  141.1732  164.6505 C.3     1  UNL1        0.1747
     26 N         143.7766  139.6988  164.8406 N.pl3   1  UNL1       -0.3106
     27 H         144.2997  139.2147  165.5198 H       1  UNL1        0.1486
     28 C         142.7798  138.9618  163.9959 C.ar    1  UNL1        0.1320
     29 N         143.1841  138.4260  162.6545 N.ar    1  UNL1       -0.2092
     30 C         142.1873  137.6892  161.8098 C.ar    1  UNL1        0.2000
     31 N         140.7863  137.4881  162.3066 N.ar    1  UNL1       -0.2239
     32 C         140.3821  138.0239  163.6480 C.ar    1  UNL1        0.0857
     33 C         138.9811  137.8228  164.1448 C.ar    1  UNL1        0.0192
     34 C         138.5768  138.3586  165.4862 C.ar    1  UNL1        0.0054
     35 C         139.5736  139.0955  166.3309 C.ar    1  UNL1        0.0716
     36 C         140.9746  139.2966  165.8342 C.ar    1  UNL1        0.0081
     37 C         141.3788  138.7607  164.4927 C.ar    1  UNL1        0.0491
     38 C         139.1693  139.6313  167.6724 C.3     1  UNL1        0.4186
     39 F         138.7650  140.1671  169.0138 F       1  UNL1       -0.1659
     40 F         140.5056  140.2989  167.8084 F       1  UNL1       -0.1659
     41 F         137.8330  138.9637  167.5363 F       1  UNL1       -0.1659
@<TRIPOS>BOND
     1    23    24    1
     2    24    17    1
     3    17    18   ar
     4    18    19   ar
     5    19    20   ar
     6    20    21   ar
     7    21     9    1
     8     9    10    1
     9     9    11    1
    10    11    12    1
    11    12    13    1
    12    13     5    1
    13     5     6    1
    14     6     7    1
    15     7     1    1
    16     1     2   am
    17     2     3    2
    18     2    25    1
    19    25    26    1
    20    26    28    1
    21    28    29   ar
    22    29    30   ar
    23    30    31   ar
    24    31    32   ar
    25    32    33   ar
    26    33    34   ar
    27    34    35   ar
    28    35    38    1
    29    38    39    1
    30    38    40    1
    31    38    41    1
    32    35    36   ar
    33    36    37   ar
    34     7     8    1
    35    13    14    1
    36    14    15    1
    37    21    22   ar
    38    22    17   ar
    39    15     9    1
    40     8     5    1
    41    37    28   ar
    42    37    32   ar
    43    10    16    1
    44     1     4    1
    45    26    27    1
@<TRIPOS>MOLECULE
*****
 41 45 0 0 0
SMALL
GASTEIGER

@<TRIPOS>ATOM
      1 N         142.6062  142.7494  162.3357 N.am    1  UNL1       -0.3018
      2 C         142.2801  144.1943  162.0991 C.2     1  UNL1        0.2425
      3 O         142.0915  144.7013  160.7000 O.2     1  UNL1       -0.2733
      4 H         142.7300  142.4167  163.2539 H       1  UNL1        0.1495
      5 N         142.9381  140.4851  159.5290 N.3     1  UNL1       -0.2711
      6 C         143.8860  141.0897  160.5220 C.3     1  UNL1        0.0933
      7 C         142.7436  141.8115  161.1731 C.3     1  UNL1        0.1035
      8 C         141.7957  141.2070  160.1802 C.3     1  UNL1        0.0933
      9 C         143.3506  137.6715  156.0415 C.3     1  UNL1        0.1232
     10 O         143.9626  137.6197  154.6730 O.3     1  UNL1       -0.3812
     11 C         142.5992  137.2422  157.2668 C.3     1  UNL1        0.0341
     12 C         142.4617  138.1800  158.4292 C.3     1  UNL1        0.0188
     13 C         143.0756  139.5472  158.3666 C.3     1  UNL1        0.0578
     14 C         143.8269  139.9766  157.1414 C.3     1  UNL1        0.0188
     15 C         143.9645  139.0387  155.9788 C.3     1  UNL1        0.0341
     16 H         143.7803  136.7566  154.2697 H       1  UNL1        0.2107
     17 C         142.5751  133.7833  156.2161 C.ar    1  UNL1        0.2247
     18 C         142.1466  133.5160  154.8037 C.ar    1  UNL1        0.0577
     19 C         142.1195  134.6338  153.8038 C.ar    1  UNL1        0.0061
     20 C         142.5208  136.0190  154.2165 C.ar    1  UNL1        0.0173
     21 C         142.9493  136.2863  155.6289 C.ar    1  UNL1        0.0861
     22 N         142.9764  135.1685  156.6288 N.ar    1  UNL1       -0.2137
     23 C         143.2378  131.3547  156.8585 C.3     1  UNL1        0.2542
     24 O         142.6022  132.6654  157.2160 O.3     1  UNL1       -0.4561
     25 C         142.1426  145.1323  163.2616 C.3     1  UNL1        0.1747
     26 N         140.8310  145.2493  163.9798 N.pl3   1  UNL1       -0.3106
     27 H         140.6270  146.0576  164.5035 H       1  UNL1        0.1486
     28 C         139.8301  144.1348  163.9000 C.ar    1  UNL1        0.1320
     29 N         138.7259  144.1895  162.8863 N.ar    1  UNL1       -0.2092
     30 C         137.7252  143.0751  162.8065 C.ar    1  UNL1        0.2000
     31 N         137.8286  141.9059  163.7405 N.ar    1  UNL1       -0.2239
     32 C         138.9328  141.8512  164.7542 C.ar    1  UNL1        0.0857
     33 C         139.0363  140.6820  165.6882 C.ar    1  UNL1        0.0192
     34 C         140.1405  140.6273  166.7020 C.ar    1  UNL1        0.0054
     35 C         141.1413  141.7418  166.7817 C.ar    1  UNL1        0.0716
     36 C         141.0379  142.9110  165.8478 C.ar    1  UNL1        0.0081
     37 C         139.9336  142.9656  164.8340 C.ar    1  UNL1        0.0491
     38 C         142.2455  141.6871  167.7955 C.3     1  UNL1        0.4186
     39 F         143.3497  141.6324  168.8093 F       1  UNL1       -0.1659
     40 F         142.8281  140.4947  167.0965 F       1  UNL1       -0.1659
     41 F         141.6628  142.8795  168.4945 F       1  UNL1       -0.1659
@<TRIPOS>BOND
     1    23    24    1
     2    24    17    1
     3    17    18   ar
     4    18    19   ar
     5    19    20   ar
     6    20    21   ar
     7    21     9    1
     8     9    10    1
     9     9    11    1
    10    11    12    1
    11    12    13    1
    12    13     5    1
    13     5     6    1
    14     6     7    1
    15     7     1    1
    16     1     2   am
    17     2     3    2
    18     2    25    1
    19    25    26    1
    20    26    28    1
    21    28    29   ar
    22    29    30   ar
    23    30    31   ar
    24    31    32   ar
    25    32    33   ar
    26    33    34   ar
    27    34    35   ar
    28    35    38    1
    29    38    39    1
    30    38    40    1
    31    38    41    1
    32    35    36   ar
    33    36    37   ar
    34     7     8    1
    35    13    14    1
    36    14    15    1
    37    21    22   ar
    38    22    17   ar
    39    15     9    1
    40     8     5    1
    41    37    28   ar
    42    37    32   ar
    43    10    16    1
    44     1     4    1
    45    26    27    1
@<TRIPOS>MOLECULE
*****
 41 45 0 0 0
SMALL
GASTEIGER

@<TRIPOS>ATOM
      1 N         141.7852  143.3779  158.6698 N.am    1  UNL1       -0.3018
      2 C         140.5746  143.6797  159.5025 C.2     1  UNL1        0.2425
      3 O         139.5259  142.6275  159.7103 O.2     1  UNL1       -0.2733
      4 H         142.4735  144.0685  158.5335 H       1  UNL1        0.1495
      5 N         142.1759  140.1091  157.1610 N.3     1  UNL1       -0.2711
      6 C         141.0417  141.0791  157.3116 C.3     1  UNL1        0.0933
      7 C         141.9471  142.0239  158.0449 C.3     1  UNL1        0.1035
      8 C         143.0812  141.0539  157.8943 C.3     1  UNL1        0.0933
      9 C         142.6613  136.0472  155.2861 C.3     1  UNL1        0.1232
     10 O         142.9416  135.4241  153.9508 O.3     1  UNL1       -0.3812
     11 C         142.3698  136.1663  156.7528 C.3     1  UNL1        0.0341
     12 C         142.2080  137.5203  157.3777 C.3     1  UNL1        0.0188
     13 C         142.3377  138.7551  156.5361 C.3     1  UNL1        0.0578
     14 C         142.6292  138.6360  155.0696 C.3     1  UNL1        0.0188
     15 C         142.7910  137.2820  154.4445 C.3     1  UNL1        0.0341
     16 H         142.9519  134.4583  154.0404 H       1  UNL1        0.2107
     17 C         143.5895  132.6040  157.0276 C.ar    1  UNL1        0.2247
     18 C         142.5643  131.6934  156.4196 C.ar    1  UNL1        0.0577
     19 C         141.5714  132.2340  155.4338 C.ar    1  UNL1        0.0061
     20 C         141.6038  133.6853  155.0560 C.ar    1  UNL1        0.0173
     21 C         142.6290  134.5960  155.6640 C.ar    1  UNL1        0.0861
     22 N         143.6219  134.0553  156.6499 N.ar    1  UNL1       -0.2137
     23 C         144.8694  130.5918  158.0586 C.3     1  UNL1        0.2542
     24 O         144.5823  132.0634  158.0135 O.3     1  UNL1       -0.4561
     25 C         140.4127  145.0336  160.1275 C.3     1  UNL1        0.1747
     26 N         141.4239  145.5277  161.1192 N.pl3   1  UNL1       -0.3106
     27 H         141.6080  146.4918  161.1957 H       1  UNL1        0.1486
     28 C         142.1545  144.5528  161.9944 C.ar    1  UNL1        0.1320
     29 N         143.4913  144.0204  161.5708 N.ar    1  UNL1       -0.2092
     30 C         144.2218  143.0456  162.4459 C.ar    1  UNL1        0.2000
     31 N         143.6156  142.6031  163.7447 N.ar    1  UNL1       -0.2239
     32 C         142.2788  143.1356  164.1683 C.ar    1  UNL1        0.0857
     33 C         141.6725  142.6932  165.4670 C.ar    1  UNL1        0.0192
     34 C         140.3357  143.2256  165.8906 C.ar    1  UNL1        0.0054
     35 C         139.6051  144.2005  165.0154 C.ar    1  UNL1        0.0716
     36 C         140.2114  144.6429  163.7167 C.ar    1  UNL1        0.0081
     37 C         141.5482  144.1104  163.2931 C.ar    1  UNL1        0.0491
     38 C         138.2683  144.7329  165.4390 C.3     1  UNL1        0.4186
     39 F         136.9315  145.2654  165.8627 F       1  UNL1       -0.1659
     40 F         137.6680  144.2491  164.1524 F       1  UNL1       -0.1659
     41 F         138.8687  145.2167  166.7256 F       1  UNL1       -0.1659
@<TRIPOS>BOND
     1    23    24    1
     2    24    17    1
     3    17    18   ar
     4    18    19   ar
     5    19    20   ar
     6    20    21   ar
     7    21     9    1
     8     9    10    1
     9     9    11    1
    10    11    12    1
    11    12    13    1
    12    13     5    1
    13     5     6    1
    14     6     7    1
    15     7     1    1
    16     1     2   am
    17     2     3    2
    18     2    25    1
    19    25    26    1
    20    26    28    1
    21    28    29   ar
    22    29    30   ar
    23    30    31   ar
    24    31    32   ar
    25    32    33   ar
    26    33    34   ar
    27    34    35   ar
    28    35    38    1
    29    38    39    1
    30    38    40    1
    31    38    41    1
    32    35    36   ar
    33    36    37   ar
    34     7     8    1
    35    13    14    1
    36    14    15    1
    37    21    22   ar
    38    22    17   ar
    39    15     9    1
    40     8     5    1
    41    37    28   ar
    42    37    32   ar
    43    10    16    1
    44     1     4    1
    45    26    27    1
@<TRIPOS>MOLECULE
*****
 41 45 0 0 0
SMALL
GASTEIGER

@<TRIPOS>ATOM
      1 N         141.9836  138.2986  157.3402 N.am    1  UNL1       -0.3018
      2 C         143.2857  138.8904  156.8880 C.2     1  UNL1        0.2425
      3 O         144.0841  139.7494  157.8233 O.2     1  UNL1       -0.2733
      4 H         141.4596  137.7348  156.7264 H       1  UNL1        0.1495
      5 N         140.7676  138.9439  160.6897 N.3     1  UNL1       -0.2711
      6 C         140.2587  139.2176  159.3055 C.3     1  UNL1        0.0933
      7 C         141.4800  138.5659  158.7277 C.3     1  UNL1        0.1035
      8 C         141.9889  138.2922  160.1118 C.3     1  UNL1        0.0933
      9 C         139.2566  139.7458  164.8519 C.3     1  UNL1        0.1232
     10 O         138.1192  139.3683  165.7540 O.3     1  UNL1       -0.3812
     11 C         140.5210  140.3967  164.3746 C.3     1  UNL1        0.0341
     12 C         141.0247  140.1294  162.9872 C.3     1  UNL1        0.0188
     13 C         140.2640  139.2112  162.0771 C.3     1  UNL1        0.0578
     14 C         138.9997  138.5604  162.5543 C.3     1  UNL1        0.0188
     15 C         138.4959  138.8276  163.9418 C.3     1  UNL1        0.0341
     16 H         138.2227  139.8147  166.6089 H       1  UNL1        0.2107
     17 C         139.9750  140.6609  168.6461 C.ar    1  UNL1        0.2247
     18 C         140.3537  142.1070  168.5222 C.ar    1  UNL1        0.0577
     19 C         140.3667  142.7661  167.1747 C.ar    1  UNL1        0.0061
     20 C         140.0010  141.9789  165.9514 C.ar    1  UNL1        0.0173
     21 C         139.6223  140.5329  166.0753 C.ar    1  UNL1        0.0861
     22 N         139.6093  139.8738  167.4228 N.ar    1  UNL1       -0.2137
     23 C         140.8268  140.5345  171.0973 C.3     1  UNL1        0.2542
     24 O         139.9619  140.0019  169.9936 O.3     1  UNL1       -0.4561
     25 C         143.7893  138.6231  155.5006 C.3     1  UNL1        0.1747
     26 N         144.0951  137.2188  155.0713 N.pl3   1  UNL1       -0.3106
     27 H         145.0241  136.8929  155.0790 H       1  UNL1        0.1486
     28 C         142.9855  136.3109  154.6302 C.ar    1  UNL1        0.1320
     29 N         141.9449  136.8093  153.6717 N.ar    1  UNL1       -0.2092
     30 C         140.8353  135.9014  153.2307 C.ar    1  UNL1        0.2000
     31 N         140.7663  134.4952  153.7481 N.ar    1  UNL1       -0.2239
     32 C         141.8069  133.9968  154.7066 C.ar    1  UNL1        0.0857
     33 C         141.7379  132.5906  155.2241 C.ar    1  UNL1        0.0192
     34 C         142.7785  132.0922  156.1826 C.ar    1  UNL1        0.0054
     35 C         143.8882  133.0001  156.6237 C.ar    1  UNL1        0.0716
     36 C         143.9571  134.4063  156.1062 C.ar    1  UNL1        0.0081
     37 C         142.9165  134.9047  155.1477 C.ar    1  UNL1        0.0491
     38 C         144.9288  132.5017  157.5821 C.3     1  UNL1        0.4186
     39 F         145.9694  132.0033  158.5407 F       1  UNL1       -0.1659
     40 F         144.4698  133.5026  158.6008 F       1  UNL1       -0.1659
     41 F         145.3877  131.5009  156.5635 F       1  UNL1       -0.1659
@<TRIPOS>BOND
     1    23    24    1
     2    24    17    1
     3    17    18   ar
     4    18    19   ar
     5    19    20   ar
     6    20    21   ar
     7    21     9    1
     8     9    10    1
     9     9    11    1
    10    11    12    1
    11    12    13    1
    12    13     5    1
    13     5     6    1
    14     6     7    1
    15     7     1    1
    16     1     2   am
    17     2     3    2
    18     2    25    1
    19    25    26    1
    20    26    28    1
    21    28    29   ar
    22    29    30   ar
    23    30    31   ar
    24    31    32   ar
    25    32    33   ar
    26    33    34   ar
    27    34    35   ar
    28    35    38    1
    29    38    39    1
    30    38    40    1
    31    38    41    1
    32    35    36   ar
    33    36    37   ar
    34     7     8    1
    35    13    14    1
    36    14    15    1
    37    21    22   ar
    38    22    17   ar
    39    15     9    1
    40     8     5    1
    41    37    28   ar
    42    37    32   ar
    43    10    16    1
    44     1     4    1
    45    26    27    1
@<TRIPOS>MOLECULE
*****
 41 45 0 0 0
SMALL
GASTEIGER

@<TRIPOS>ATOM
      1 N         139.6449  142.7480  160.9416 N.am    1  UNL1       -0.3018
      2 C         138.4145  142.3388  161.6958 C.2     1  UNL1        0.2425
      3 O         137.8585  140.9555  161.5299 O.2     1  UNL1       -0.2733
      4 H         140.0098  143.6558  161.0505 H       1  UNL1        0.1495
      5 N         141.2729  140.3963  158.7204 N.3     1  UNL1       -0.2711
      6 C         140.2808  141.5077  158.5459 C.3     1  UNL1        0.0933
      7 C         140.3193  141.7738  160.0216 C.3     1  UNL1        0.1035
      8 C         141.3113  140.6625  160.1962 C.3     1  UNL1        0.0933
      9 C         143.2959  137.4741  155.9603 C.3     1  UNL1        0.1232
     10 O         144.4518  137.4055  155.0069 O.3     1  UNL1       -0.3812
     11 C         142.0973  137.0483  156.7554 C.3     1  UNL1        0.0341
     12 C         141.4230  138.0224  157.6755 C.3     1  UNL1        0.0188
     13 C         141.9472  139.4222  157.8004 C.3     1  UNL1        0.0578
     14 C         143.1458  139.8480  157.0054 C.3     1  UNL1        0.0188
     15 C         143.8201  138.8739  156.0853 C.3     1  UNL1        0.0341
     16 H         144.5007  136.5167  154.6215 H       1  UNL1        0.2107
     17 C         143.7769  133.5388  155.7818 C.ar    1  UNL1        0.2247
     18 C         142.9275  133.2031  154.5920 C.ar    1  UNL1        0.0577
     19 C         142.2008  134.2910  153.8582 C.ar    1  UNL1        0.0061
     20 C         142.3237  135.7147  154.3144 C.ar    1  UNL1        0.0173
     21 C         143.1731  136.0505  155.5042 C.ar    1  UNL1        0.0861
     22 N         143.8998  134.9625  156.2380 N.ar    1  UNL1       -0.2137
     23 C         144.9441  132.6669  157.9330 C.3     1  UNL1        0.2542
     24 O         144.5036  132.4508  156.5155 O.3     1  UNL1       -0.4561
     25 C         137.7402  143.3128  162.6158 C.3     1  UNL1        0.1747
     26 N         138.3115  143.5775  163.9772 N.pl3   1  UNL1       -0.3106
     27 H         137.7458  143.9705  164.6806 H       1  UNL1        0.1486
     28 C         139.7448  143.2432  164.2670 C.ar    1  UNL1        0.1320
     29 N         140.8390  144.1444  163.7769 N.ar    1  UNL1       -0.2092
     30 C         142.2723  143.8101  164.0667 C.ar    1  UNL1        0.2000
     31 N         142.6113  142.5746  164.8467 N.ar    1  UNL1       -0.2239
     32 C         141.5171  141.6733  165.3369 C.ar    1  UNL1        0.0857
     33 C         141.8561  140.4377  166.1169 C.ar    1  UNL1        0.0192
     34 C         140.7618  139.5364  166.6071 C.ar    1  UNL1        0.0054
     35 C         139.3285  139.8707  166.3173 C.ar    1  UNL1        0.0716
     36 C         138.9895  141.1063  165.5373 C.ar    1  UNL1        0.0081
     37 C         140.0838  142.0076  165.0471 C.ar    1  UNL1        0.0491
     38 C         138.2343  138.9695  166.8075 C.3     1  UNL1        0.4186
     39 F         137.1400  138.0682  167.2978 F       1  UNL1       -0.1659
     40 F         138.0631  138.4232  165.4210 F       1  UNL1       -0.1659
     41 F         138.4055  139.5157  168.1939 F       1  UNL1       -0.1659
@<TRIPOS>BOND
     1    23    24    1
     2    24    17    1
     3    17    18   ar
     4    18    19   ar
     5    19    20   ar
     6    20    21   ar
     7    21     9    1
     8     9    10    1
     9     9    11    1
    10    11    12    1
    11    12    13    1
    12    13     5    1
    13     5     6    1
    14     6     7    1
    15     7     1    1
    16     1     2   am
    17     2     3    2
    18     2    25    1
    19    25    26    1
    20    26    28    1
    21    28    29   ar
    22    29    30   ar
    23    30    31   ar
    24    31    32   ar
    25    32    33   ar
    26    33    34   ar
    27    34    35   ar
    28    35    38    1
    29    38    39    1
    30    38    40    1
    31    38    41    1
    32    35    36   ar
    33    36    37   ar
    34     7     8    1
    35    13    14    1
    36    14    15    1
    37    21    22   ar
    38    22    17   ar
    39    15     9    1
    40     8     5    1
    41    37    28   ar
    42    37    32   ar
    43    10    16    1
    44     1     4    1
    45    26    27    1
