@<TRIPOS>MOLECULE
*****
 29 32 0 0 0
SMALL
GASTEIGER

@<TRIPOS>ATOM
      1 C         140.9872  143.0718  163.2015 C.3     1  UNL1        0.1747
      2 C         142.2151  142.2465  162.9544 C.3     1  UNL1        0.0407
      3 C         142.6289  141.2016  163.9479 C.3     1  UNL1        0.0431
      4 C         143.8568  140.3763  163.7008 C.3     1  UNL1        0.0921
      5 S         144.2706  139.3314  164.6943 S.3     1  UNL1       -0.0787
      6 C         143.4565  139.1119  165.9349 C.2     1  UNL1        0.1483
      7 N         143.8703  138.0670  166.9284 N.pl3   1  UNL1       -0.3380
      8 N         142.2286  139.9372  166.1820 N.2     1  UNL1       -0.2484
      9 C         141.8147  140.9821  165.1884 C.3     1  UNL1        0.1352
     10 C         140.5868  141.8074  165.4355 C.3     1  UNL1        0.1691
     11 O         140.1731  142.8522  164.4420 O.3     1  UNL1       -0.3462
     12 H         144.6762  137.5253  166.7662 H       1  UNL1        0.1442
     13 H         143.3360  137.9229  167.7426 H       1  UNL1        0.1442
     14 C         141.0006  140.7625  166.4290 C.ar    1  UNL1        0.0278
     15 C         139.8447  139.8067  166.4081 C.ar    1  UNL1        0.0021
     16 C         139.0306  139.5872  167.6487 C.ar    1  UNL1        0.0295
     17 C         139.3723  140.3234  168.9101 C.ar    1  UNL1        0.1424
     18 F         138.5582  140.1039  170.1507 F       1  UNL1       -0.2041
     19 C         140.5282  141.2792  168.9310 C.ar    1  UNL1        0.0590
     20 C         141.3423  141.4988  167.6904 C.ar    1  UNL1        0.1402
     21 F         142.4982  142.4545  167.7112 F       1  UNL1       -0.2044
     22 C         140.3576  145.7418  158.6898 C.3     1  UNL1        0.0557
     23 C         140.2840  145.3439  160.1341 C.ar    1  UNL1        0.1008
     24 C         140.8922  144.1150  160.7422 C.ar    1  UNL1        0.0561
     25 C         140.5734  144.1167  162.2080 C.ar    1  UNL1        0.1809
     26 O         139.7681  145.3466  162.5058 O.2     1  UNL1       -0.3556
     27 N         139.5892  146.1051  161.2241 N.ar    1  UNL1       -0.0817
     28 C         144.6710  140.5958  162.4603 C.3     1  UNL1        0.2044
     29 F         145.6625  141.7198  162.4031 F       1  UNL1       -0.2334
@<TRIPOS>BOND
     1    22    23    1
     2    23    24   ar
     3    24    25   ar
     4    25     1    1
     5     1     2    1
     6     3     2    1
     7     3     4    1
     8     4    28    1
     9    28    29    1
    10     4     5    1
    11     5     6    1
    12     6     7    1
    13     6     8    2
    14     8     9    1
    15     9    14    1
    16    14    15   ar
    17    15    16   ar
    18    16    17   ar
    19    17    18    1
    20    17    19   ar
    21    19    20   ar
    22    20    21    1
    23     9    10    1
    24    10    11    1
    25    25    26   ar
    26    26    27   ar
    27    27    23   ar
    28    11     1    1
    29     9     3    1
    30    20    14   ar
    31     7    12    1
    32     7    13    1
@<TRIPOS>MOLECULE
*****
 29 32 0 0 0
SMALL
GASTEIGER

@<TRIPOS>ATOM
      1 C         140.9715  143.0542  163.1494 C.3     1  UNL1        0.1747
      2 C         142.2052  142.2339  162.9151 C.3     1  UNL1        0.0407
      3 C         142.6136  141.1916  163.9134 C.3     1  UNL1        0.0431
      4 C         143.8474  140.3712  163.6791 C.3     1  UNL1        0.0921
      5 S         144.2558  139.3289  164.6775 S.3     1  UNL1       -0.0787
      6 C         143.4305  139.1069  165.9102 C.2     1  UNL1        0.1483
      7 N         143.8389  138.0645  166.9085 N.pl3   1  UNL1       -0.3380
      8 N         142.1968  139.9272  166.1445 N.2     1  UNL1       -0.2484
      9 C         141.7883  140.9696  165.1461 C.3     1  UNL1        0.1352
     10 C         140.5546  141.7899  165.3805 C.3     1  UNL1        0.1691
     11 O         140.1462  142.8322  164.3821 O.3     1  UNL1       -0.3462
     12 H         144.6487  137.5261  166.7547 H       1  UNL1        0.1442
     13 H         143.2973  137.9188  167.7176 H       1  UNL1        0.1442
     14 C         140.9630  140.7476  166.3788 C.ar    1  UNL1        0.0278
     15 C         141.2359  141.5474  167.6182 C.ar    1  UNL1        0.0021
     16 C         140.4106  141.3254  168.8509 C.ar    1  UNL1        0.0295
     17 C         139.3123  140.3036  168.8442 C.ar    1  UNL1        0.1424
     18 F         138.4870  140.0816  170.0769 F       1  UNL1       -0.2041
     19 C         139.0395  139.5039  167.6049 C.ar    1  UNL1        0.0590
     20 C         139.8648  139.7259  166.3722 C.ar    1  UNL1        0.1402
     21 F         139.5919  138.9262  165.1329 F       1  UNL1       -0.2044
     22 C         140.3779  145.7199  158.6302 C.3     1  UNL1        0.0557
     23 C         140.2903  145.3218  160.0738 C.ar    1  UNL1        0.1008
     24 C         140.8985  144.0965  160.6890 C.ar    1  UNL1        0.0561
     25 C         140.5631  144.0966  162.1510 C.ar    1  UNL1        0.1809
     26 O         139.7475  145.3220  162.4394 O.2     1  UNL1       -0.3556
     27 N         139.5789  146.0793  161.1556 N.ar    1  UNL1       -0.0817
     28 C         144.6728  140.5932  162.4464 C.3     1  UNL1        0.2044
     29 F         145.6311  141.7453  162.3829 F       1  UNL1       -0.2334
@<TRIPOS>BOND
     1    22    23    1
     2    23    24   ar
     3    24    25   ar
     4    25     1    1
     5     1     2    1
     6     3     2    1
     7     3     4    1
     8     4    28    1
     9    28    29    1
    10     4     5    1
    11     5     6    1
    12     6     7    1
    13     6     8    2
    14     8     9    1
    15     9    14    1
    16    14    15   ar
    17    15    16   ar
    18    16    17   ar
    19    17    18    1
    20    17    19   ar
    21    19    20   ar
    22    20    21    1
    23     9    10    1
    24    10    11    1
    25    25    26   ar
    26    26    27   ar
    27    27    23   ar
    28    11     1    1
    29     9     3    1
    30    20    14   ar
    31     7    12    1
    32     7    13    1
@<TRIPOS>MOLECULE
*****
 29 32 0 0 0
SMALL
GASTEIGER

@<TRIPOS>ATOM
      1 C         140.8285  142.8443  162.4144 C.3     1  UNL1        0.1747
      2 C         142.2535  142.4023  162.5694 C.3     1  UNL1        0.0407
      3 C         142.5937  141.2839  163.5092 C.3     1  UNL1        0.0431
      4 C         144.0188  140.8418  163.6643 C.3     1  UNL1        0.0921
      5 S         144.3591  139.7234  164.6040 S.3     1  UNL1       -0.0787
      6 C         143.2744  139.0469  165.3888 C.2     1  UNL1        0.1483
      7 N         143.6147  137.9284  166.3286 N.pl3   1  UNL1       -0.3380
      8 N         141.8494  139.4889  165.2338 N.2     1  UNL1       -0.2484
      9 C         141.5091  140.6074  164.2940 C.3     1  UNL1        0.1352
     10 C         140.0841  141.0494  164.1389 C.3     1  UNL1        0.1691
     11 O         139.7438  142.1678  163.1992 O.3     1  UNL1       -0.3462
     12 H         144.5500  137.6383  166.4304 H       1  UNL1        0.1442
     13 H         142.9028  137.4844  166.8437 H       1  UNL1        0.1442
     14 C         140.4244  139.9310  165.0787 C.ar    1  UNL1        0.0278
     15 C         139.7122  138.7426  164.5036 C.ar    1  UNL1        0.0021
     16 C         138.6275  138.0661  165.2883 C.ar    1  UNL1        0.0295
     17 C         138.2550  138.5780  166.6482 C.ar    1  UNL1        0.1424
     18 F         137.1703  137.9016  167.4330 F       1  UNL1       -0.2041
     19 C         138.9672  139.7663  167.2233 C.ar    1  UNL1        0.0590
     20 C         140.0518  140.4428  166.4386 C.ar    1  UNL1        0.1402
     21 F         140.7640  141.6311  167.0136 F       1  UNL1       -0.2044
     22 C         140.4130  145.7834  158.0474 C.3     1  UNL1        0.0557
     23 C         140.2972  145.3137  159.4673 C.ar    1  UNL1        0.1008
     24 C         140.8265  144.0213  160.0144 C.ar    1  UNL1        0.0561
     25 C         140.4882  143.9628  161.4746 C.ar    1  UNL1        0.1809
     26 O         139.7498  145.2192  161.8299 O.2     1  UNL1       -0.3556
     27 N         139.6317  146.0541  160.5894 N.ar    1  UNL1       -0.0817
     28 C         145.1035  141.5183  162.8795 C.3     1  UNL1        0.2044
     29 F         146.4549  141.7287  163.4953 F       1  UNL1       -0.2334
@<TRIPOS>BOND
     1    22    23    1
     2    23    24   ar
     3    24    25   ar
     4    25     1    1
     5     1     2    1
     6     3     2    1
     7     3     4    1
     8     4    28    1
     9    28    29    1
    10     4     5    1
    11     5     6    1
    12     6     7    1
    13     6     8    2
    14     8     9    1
    15     9    14    1
    16    14    15   ar
    17    15    16   ar
    18    16    17   ar
    19    17    18    1
    20    17    19   ar
    21    19    20   ar
    22    20    21    1
    23     9    10    1
    24    10    11    1
    25    25    26   ar
    26    26    27   ar
    27    27    23   ar
    28    11     1    1
    29     9     3    1
    30    20    14   ar
    31     7    12    1
    32     7    13    1
@<TRIPOS>MOLECULE
*****
 29 32 0 0 0
SMALL
GASTEIGER

@<TRIPOS>ATOM
      1 C         140.0637  140.2049  166.5727 C.3     1  UNL1        0.1747
      2 C         141.4347  139.7324  166.1892 C.3     1  UNL1        0.0407
      3 C         141.7275  139.3553  164.7672 C.3     1  UNL1        0.0431
      4 C         143.0985  138.8828  164.3836 C.3     1  UNL1        0.0921
      5 S         143.3913  138.5058  162.9617 S.3     1  UNL1       -0.0787
      6 C         142.3132  138.6012  161.9232 C.2     1  UNL1        0.1483
      7 N         142.6060  138.2241  160.5012 N.pl3   1  UNL1       -0.3380
      8 N         140.9422  139.0736  162.3067 N.2     1  UNL1       -0.2484
      9 C         140.6493  139.4507  163.7288 C.3     1  UNL1        0.1352
     10 C         139.2783  139.9232  164.1123 C.3     1  UNL1        0.1691
     11 O         138.9855  140.3002  165.5342 O.3     1  UNL1       -0.3462
     12 H         143.5059  137.9140  160.2495 H       1  UNL1        0.1442
     13 H         141.8984  138.2867  159.8196 H       1  UNL1        0.1442
     14 C         139.5711  139.5461  162.6903 C.ar    1  UNL1        0.0278
     15 C         139.4103  140.8043  161.8895 C.ar    1  UNL1        0.0021
     16 C         138.3321  140.8997  160.8510 C.ar    1  UNL1        0.0295
     17 C         137.4147  139.7369  160.6134 C.ar    1  UNL1        0.1424
     18 F         136.3365  139.8323  159.5749 F       1  UNL1       -0.2041
     19 C         137.5756  138.4788  161.4142 C.ar    1  UNL1        0.0590
     20 C         138.6538  138.3834  162.4526 C.ar    1  UNL1        0.1402
     21 F         138.8146  137.1253  163.2534 F       1  UNL1       -0.2044
     22 C         139.8377  142.8968  171.1096 C.3     1  UNL1        0.0557
     23 C         139.6670  141.8193  170.0801 C.ar    1  UNL1        0.1008
     24 C         140.1598  141.8667  168.6642 C.ar    1  UNL1        0.0561
     25 C         139.7708  140.5819  167.9947 C.ar    1  UNL1        0.1809
     26 O         139.0377  139.7405  168.9969 O.2     1  UNL1       -0.3556
     27 N         138.9735  140.5052  170.2857 N.ar    1  UNL1       -0.0817
     28 C         144.1767  138.7875  165.4221 C.3     1  UNL1        0.2044
     29 F         144.1076  137.7260  166.4797 F       1  UNL1       -0.2334
@<TRIPOS>BOND
     1    22    23    1
     2    23    24   ar
     3    24    25   ar
     4    25     1    1
     5     1     2    1
     6     3     2    1
     7     3     4    1
     8     4    28    1
     9    28    29    1
    10     4     5    1
    11     5     6    1
    12     6     7    1
    13     6     8    2
    14     8     9    1
    15     9    14    1
    16    14    15   ar
    17    15    16   ar
    18    16    17   ar
    19    17    18    1
    20    17    19   ar
    21    19    20   ar
    22    20    21    1
    23     9    10    1
    24    10    11    1
    25    25    26   ar
    26    26    27   ar
    27    27    23   ar
    28    11     1    1
    29     9     3    1
    30    20    14   ar
    31     7    12    1
    32     7    13    1
@<TRIPOS>MOLECULE
*****
 29 32 0 0 0
SMALL
GASTEIGER

@<TRIPOS>ATOM
      1 C         142.1009  140.2878  166.3687 C.3     1  UNL1        0.1747
      2 C         140.8699  139.4524  166.1777 C.3     1  UNL1        0.0407
      3 C         140.4391  139.0565  164.7965 C.3     1  UNL1        0.0431
      4 C         139.2079  138.2210  164.6055 C.3     1  UNL1        0.0921
      5 S         138.7771  137.8251  163.2243 S.3     1  UNL1       -0.0787
      6 C         139.5774  138.2647  162.0342 C.2     1  UNL1        0.1483
      7 N         139.1465  137.8687  160.6530 N.pl3   1  UNL1       -0.3380
      8 N         140.8084  139.1001  162.2252 N.2     1  UNL1       -0.2484
      9 C         141.2393  139.4960  163.6064 C.3     1  UNL1        0.1352
     10 C         142.4704  140.3314  163.7974 C.3     1  UNL1        0.1691
     11 O         142.9012  140.7273  165.1785 O.3     1  UNL1       -0.3462
     12 H         138.3385  137.3204  160.5276 H       1  UNL1        0.1442
     13 H         139.6717  138.1572  159.8718 H       1  UNL1        0.1442
     14 C         142.0396  139.9355  162.4162 C.ar    1  UNL1        0.0278
     15 C         141.7532  141.2568  161.7664 C.ar    1  UNL1        0.0021
     16 C         142.5534  141.6964  160.5763 C.ar    1  UNL1        0.0295
     17 C         143.6400  140.8146  160.0360 C.ar    1  UNL1        0.1424
     18 F         144.4403  141.2541  158.8458 F       1  UNL1       -0.2041
     19 C         143.9263  139.4933  160.6858 C.ar    1  UNL1        0.0590
     20 C         143.1261  139.0538  161.8760 C.ar    1  UNL1        0.1402
     21 F         143.4124  137.7326  162.5258 F       1  UNL1       -0.2044
     22 C         143.2490  143.1781  170.6359 C.3     1  UNL1        0.0557
     23 C         143.0595  142.0123  169.7113 C.ar    1  UNL1        0.1008
     24 C         142.5661  142.0802  168.2964 C.ar    1  UNL1        0.0561
     25 C         142.5318  140.6837  167.7499 C.ar    1  UNL1        0.1809
     26 O         143.0040  139.7527  168.8270 O.2     1  UNL1       -0.3556
     27 N         143.3301  140.5738  170.0392 N.ar    1  UNL1       -0.0817
     28 C         138.4077  137.7815  165.7956 C.3     1  UNL1        0.2044
     29 F         137.5382  138.7661  166.5198 F       1  UNL1       -0.2334
@<TRIPOS>BOND
     1    22    23    1
     2    23    24   ar
     3    24    25   ar
     4    25     1    1
     5     1     2    1
     6     3     2    1
     7     3     4    1
     8     4    28    1
     9    28    29    1
    10     4     5    1
    11     5     6    1
    12     6     7    1
    13     6     8    2
    14     8     9    1
    15     9    14    1
    16    14    15   ar
    17    15    16   ar
    18    16    17   ar
    19    17    18    1
    20    17    19   ar
    21    19    20   ar
    22    20    21    1
    23     9    10    1
    24    10    11    1
    25    25    26   ar
    26    26    27   ar
    27    27    23   ar
    28    11     1    1
    29     9     3    1
    30    20    14   ar
    31     7    12    1
    32     7    13    1
@<TRIPOS>MOLECULE
*****
 29 32 0 0 0
SMALL
GASTEIGER

@<TRIPOS>ATOM
      1 C         142.1046  141.9330  165.9015 C.3     1  UNL1        0.1747
      2 C         140.9918  142.9211  165.7138 C.3     1  UNL1        0.0407
      3 C         140.6720  143.4390  164.3428 C.3     1  UNL1        0.0431
      4 C         139.5592  144.4271  164.1550 C.3     1  UNL1        0.0921
      5 S         139.2394  144.9450  162.7841 S.3     1  UNL1       -0.0787
      6 C         140.0325  144.4749  161.6009 C.2     1  UNL1        0.1483
      7 N         139.7127  144.9928  160.2299 N.pl3   1  UNL1       -0.3380
      8 N         141.1453  143.4868  161.7886 N.2     1  UNL1       -0.2484
      9 C         141.4651  142.9688  163.1596 C.3     1  UNL1        0.1352
     10 C         142.5779  141.9808  163.3474 C.3     1  UNL1        0.1691
     11 O         142.8977  141.4629  164.7183 O.3     1  UNL1       -0.3462
     12 H         138.9823  145.6413  160.1067 H       1  UNL1        0.1442
     13 H         140.2332  144.6843  159.4533 H       1  UNL1        0.1442
     14 C         142.2582  142.4987  161.9764 C.ar    1  UNL1        0.0278
     15 C         141.8060  141.2977  161.1997 C.ar    1  UNL1        0.0021
     16 C         142.5990  140.8275  160.0165 C.ar    1  UNL1        0.0295
     17 C         143.8444  141.5583  159.6100 C.ar    1  UNL1        0.1424
     18 F         144.6375  141.0882  158.4268 F       1  UNL1       -0.2041
     19 C         144.2965  142.7592  160.3867 C.ar    1  UNL1        0.0590
     20 C         143.5035  143.2294  161.5699 C.ar    1  UNL1        0.1402
     21 F         143.9556  144.4303  162.3466 F       1  UNL1       -0.2044
     22 C         142.5800  138.7370  170.0777 C.3     1  UNL1        0.0557
     23 C         142.6429  139.9460  169.1920 C.ar    1  UNL1        0.1008
     24 C         142.1697  140.0233  167.7707 C.ar    1  UNL1        0.0561
     25 C         142.4244  141.4151  167.2725 C.ar    1  UNL1        0.1809
     26 O         143.0549  142.1979  168.3858 O.2     1  UNL1       -0.3556
     27 N         143.1900  141.2900  169.5722 N.ar    1  UNL1       -0.0817
     28 C         138.7661  144.8973  165.3382 C.3     1  UNL1        0.2044
     29 F         137.2831  144.6767  165.3827 F       1  UNL1       -0.2334
@<TRIPOS>BOND
     1    22    23    1
     2    23    24   ar
     3    24    25   ar
     4    25     1    1
     5     1     2    1
     6     3     2    1
     7     3     4    1
     8     4    28    1
     9    28    29    1
    10     4     5    1
    11     5     6    1
    12     6     7    1
    13     6     8    2
    14     8     9    1
    15     9    14    1
    16    14    15   ar
    17    15    16   ar
    18    16    17   ar
    19    17    18    1
    20    17    19   ar
    21    19    20   ar
    22    20    21    1
    23     9    10    1
    24    10    11    1
    25    25    26   ar
    26    26    27   ar
    27    27    23   ar
    28    11     1    1
    29     9     3    1
    30    20    14   ar
    31     7    12    1
    32     7    13    1
@<TRIPOS>MOLECULE
*****
 29 32 0 0 0
SMALL
GASTEIGER

@<TRIPOS>ATOM
      1 C         141.4348  141.3564  166.5892 C.3     1  UNL1        0.1747
      2 C         140.7316  140.1175  166.1196 C.3     1  UNL1        0.0407
      3 C         139.9078  140.1520  164.8666 C.3     1  UNL1        0.0431
      4 C         139.2046  138.9130  164.3970 C.3     1  UNL1        0.0921
      5 S         138.3807  138.9475  163.1440 S.3     1  UNL1       -0.0787
      6 C         138.2600  140.2209  162.3606 C.2     1  UNL1        0.1483
      7 N         137.4361  140.2554  161.1075 N.pl3   1  UNL1       -0.3380
      8 N         138.9632  141.4599  162.8301 N.2     1  UNL1       -0.2484
      9 C         139.7871  141.4254  164.0832 C.3     1  UNL1        0.1352
     10 C         140.4902  142.6644  164.5528 C.3     1  UNL1        0.1691
     11 O         141.3141  142.6299  165.8058 O.3     1  UNL1       -0.3462
     12 H         136.9746  139.4422  160.7993 H       1  UNL1        0.1442
     13 H         137.3569  141.0911  160.5933 H       1  UNL1        0.1442
     14 C         139.6664  142.6989  163.2998 C.ar    1  UNL1        0.0278
     15 C         140.6704  143.0211  162.2329 C.ar    1  UNL1        0.0021
     16 C         140.5497  144.2945  161.4494 C.ar    1  UNL1        0.0295
     17 C         139.4250  145.2457  161.7329 C.ar    1  UNL1        0.1424
     18 F         139.3043  146.5192  160.9495 F       1  UNL1       -0.2041
     19 C         138.4211  144.9235  162.7997 C.ar    1  UNL1        0.0590
     20 C         138.5418  143.6500  163.5832 C.ar    1  UNL1        0.1402
     21 F         137.5378  143.3278  164.6500 F       1  UNL1       -0.2044
     22 C         144.7585  142.7356  170.4534 C.3     1  UNL1        0.0557
     23 C         143.7864  141.9560  169.6184 C.ar    1  UNL1        0.1008
     24 C         143.1635  142.4132  168.3328 C.ar    1  UNL1        0.0561
     25 C         142.2587  141.3220  167.8423 C.ar    1  UNL1        0.1809
     26 O         142.3224  140.1903  168.8247 O.2     1  UNL1       -0.3556
     27 N         143.2666  140.5821  169.9225 N.ar    1  UNL1       -0.0817
     28 C         139.3253  137.6395  165.1805 C.3     1  UNL1        0.2044
     29 F         138.1440  137.1106  165.9386 F       1  UNL1       -0.2334
@<TRIPOS>BOND
     1    22    23    1
     2    23    24   ar
     3    24    25   ar
     4    25     1    1
     5     1     2    1
     6     3     2    1
     7     3     4    1
     8     4    28    1
     9    28    29    1
    10     4     5    1
    11     5     6    1
    12     6     7    1
    13     6     8    2
    14     8     9    1
    15     9    14    1
    16    14    15   ar
    17    15    16   ar
    18    16    17   ar
    19    17    18    1
    20    17    19   ar
    21    19    20   ar
    22    20    21    1
    23     9    10    1
    24    10    11    1
    25    25    26   ar
    26    26    27   ar
    27    27    23   ar
    28    11     1    1
    29     9     3    1
    30    20    14   ar
    31     7    12    1
    32     7    13    1
@<TRIPOS>MOLECULE
*****
 29 32 0 0 0
SMALL
GASTEIGER

@<TRIPOS>ATOM
      1 C         139.9042  140.8944  166.7950 C.3     1  UNL1        0.1747
      2 C         139.9883  139.7332  165.8492 C.3     1  UNL1        0.0407
      3 C         139.9837  139.9706  164.3681 C.3     1  UNL1        0.0431
      4 C         140.0679  138.8094  163.4221 C.3     1  UNL1        0.0921
      5 S         140.0633  139.0467  161.9411 S.3     1  UNL1       -0.0787
      6 C         139.9746  140.4452  161.4059 C.2     1  UNL1        0.1483
      7 N         139.9700  140.6825  159.9247 N.pl3   1  UNL1       -0.3380
      8 N         139.8905  141.6063  162.3517 N.2     1  UNL1       -0.2484
      9 C         139.8951  141.3690  163.8329 C.3     1  UNL1        0.1352
     10 C         139.8110  142.5301  164.7787 C.3     1  UNL1        0.1691
     11 O         139.8155  142.2928  166.2598 O.3     1  UNL1       -0.3462
     12 H         140.0252  139.9204  159.3039 H       1  UNL1        0.1442
     13 H         139.9118  141.6003  159.5734 H       1  UNL1        0.1442
     14 C         139.8064  142.7675  163.2976 C.ar    1  UNL1        0.0278
     15 C         141.0582  143.5529  163.0405 C.ar    1  UNL1        0.0021
     16 C         140.9695  144.9514  162.5053 C.ar    1  UNL1        0.0295
     17 C         139.6290  145.5644  162.2272 C.ar    1  UNL1        0.1424
     18 F         139.5403  146.9628  161.6920 F       1  UNL1       -0.2041
     19 C         138.3772  144.7790  162.4844 C.ar    1  UNL1        0.0590
     20 C         138.4659  143.3805  163.0196 C.ar    1  UNL1        0.1402
     21 F         137.2142  142.5951  163.2768 F       1  UNL1       -0.2044
     22 C         141.2055  141.0924  171.9086 C.3     1  UNL1        0.0557
     23 C         140.5070  140.7481  170.6266 C.ar    1  UNL1        0.1008
     24 C         140.8679  141.2557  169.2620 C.ar    1  UNL1        0.0561
     25 C         139.9088  140.6571  168.2762 C.ar    1  UNL1        0.1809
     26 O         138.9552  139.7795  169.0314 O.2     1  UNL1       -0.3556
     27 N         139.3248  139.8358  170.4841 N.ar    1  UNL1       -0.0817
     28 C         140.1565  137.4110  163.9574 C.3     1  UNL1        0.2044
     29 F         141.4247  136.9330  164.6003 F       1  UNL1       -0.2334
@<TRIPOS>BOND
     1    22    23    1
     2    23    24   ar
     3    24    25   ar
     4    25     1    1
     5     1     2    1
     6     3     2    1
     7     3     4    1
     8     4    28    1
     9    28    29    1
    10     4     5    1
    11     5     6    1
    12     6     7    1
    13     6     8    2
    14     8     9    1
    15     9    14    1
    16    14    15   ar
    17    15    16   ar
    18    16    17   ar
    19    17    18    1
    20    17    19   ar
    21    19    20   ar
    22    20    21    1
    23     9    10    1
    24    10    11    1
    25    25    26   ar
    26    26    27   ar
    27    27    23   ar
    28    11     1    1
    29     9     3    1
    30    20    14   ar
    31     7    12    1
    32     7    13    1
@<TRIPOS>MOLECULE
*****
 29 32 0 0 0
SMALL
GASTEIGER

@<TRIPOS>ATOM
      1 C         140.8592  142.8625  162.1076 C.3     1  UNL1        0.1747
      2 C         141.9283  143.2811  163.0728 C.3     1  UNL1        0.0407
      3 C         142.1158  142.5288  164.3568 C.3     1  UNL1        0.0431
      4 C         143.1850  142.9474  165.3221 C.3     1  UNL1        0.0921
      5 S         143.3725  142.1950  166.6062 S.3     1  UNL1       -0.0787
      6 C         142.4909  141.0241  166.9250 C.2     1  UNL1        0.1483
      7 N         142.6785  140.2717  168.2091 N.pl3   1  UNL1       -0.3380
      8 N         141.4218  140.6054  165.9598 N.2     1  UNL1       -0.2484
      9 C         141.2342  141.3578  164.6756 C.3     1  UNL1        0.1352
     10 C         140.1651  140.9392  163.7104 C.3     1  UNL1        0.1691
     11 O         139.9776  141.6915  162.4264 O.3     1  UNL1       -0.3462
     12 H         143.3802  140.5465  168.8426 H       1  UNL1        0.1442
     13 H         142.0999  139.5032  168.4183 H       1  UNL1        0.1442
     14 C         140.3526  140.1868  164.9945 C.ar    1  UNL1        0.0278
     15 C         139.0653  140.3970  165.7353 C.ar    1  UNL1        0.0021
     16 C         138.1837  139.2260  166.0541 C.ar    1  UNL1        0.0295
     17 C         138.5894  137.8449  165.6321 C.ar    1  UNL1        0.1424
     18 F         137.7078  136.6740  165.9509 F       1  UNL1       -0.2041
     19 C         139.8767  137.6348  164.8913 C.ar    1  UNL1        0.0590
     20 C         140.7583  138.8058  164.5725 C.ar    1  UNL1        0.1402
     21 F         142.0455  138.5957  163.8317 F       1  UNL1       -0.2044
     22 C         141.8271  145.7201  157.7742 C.3     1  UNL1        0.0557
     23 C         141.1165  144.9283  158.8316 C.ar    1  UNL1        0.1008
     24 C         141.7482  144.3091  160.0431 C.ar    1  UNL1        0.0561
     25 C         140.6716  143.6148  160.8235 C.ar    1  UNL1        0.1809
     26 O         139.3746  143.8050  160.0944 O.2     1  UNL1       -0.3556
     27 N         139.6495  144.6168  158.8634 N.ar    1  UNL1       -0.0817
     28 C         144.0666  144.1183  165.0033 C.3     1  UNL1        0.2044
     29 F         145.2061  144.4689  165.9135 F       1  UNL1       -0.2334
@<TRIPOS>BOND
     1    22    23    1
     2    23    24   ar
     3    24    25   ar
     4    25     1    1
     5     1     2    1
     6     3     2    1
     7     3     4    1
     8     4    28    1
     9    28    29    1
    10     4     5    1
    11     5     6    1
    12     6     7    1
    13     6     8    2
    14     8     9    1
    15     9    14    1
    16    14    15   ar
    17    15    16   ar
    18    16    17   ar
    19    17    18    1
    20    17    19   ar
    21    19    20   ar
    22    20    21    1
    23     9    10    1
    24    10    11    1
    25    25    26   ar
    26    26    27   ar
    27    27    23   ar
    28    11     1    1
    29     9     3    1
    30    20    14   ar
    31     7    12    1
    32     7    13    1
