@<TRIPOS>MOLECULE
*****
 35 39 0 0 0
SMALL
GASTEIGER

@<TRIPOS>ATOM
      1 C         142.7087  139.0338  164.3727 C.3     1  UNL1        0.0789
      2 C         141.8092  138.1155  163.5997 C.3     1  UNL1        0.0203
      3 C         141.9494  138.0071  162.1102 C.3     1  UNL1        0.0061
      4 C         142.9890  138.8170  161.3938 C.3     1  UNL1        0.0240
      5 C         143.8884  139.7353  162.1668 C.3     1  UNL1        0.0061
      6 C         143.7483  139.8437  163.6563 C.3     1  UNL1        0.0203
      7 C         143.1291  138.7086  159.9042 C.ar    1  UNL1       -0.0032
      8 C         143.6050  139.8872  159.1079 C.ar    1  UNL1        0.0960
      9 N         143.7451  139.7787  157.6183 N.ar    1  UNL1       -0.2298
     10 C         143.4092  138.4916  156.9252 C.ar    1  UNL1        0.1283
     11 N         143.5493  138.3831  155.4357 N.pl3   1  UNL1       -0.3425
     12 C         142.9333  137.3129  157.7216 C.ar    1  UNL1        0.0666
     13 C         142.7932  137.4214  159.2111 C.ar    1  UNL1        0.0031
     14 H         143.8617  139.1567  154.9130 H       1  UNL1        0.1437
     15 H         143.3289  137.5383  154.9808 H       1  UNL1        0.1437
     16 C         142.5974  136.0258  157.0285 C.ar    1  UNL1        0.1649
     17 N         141.6158  136.0187  155.8942 N.ar    1  UNL1       -0.2249
     18 C         141.2799  134.7315  155.2011 C.ar    1  UNL1        0.1022
     19 C         141.9256  133.4515  155.6422 C.ar    1  UNL1        0.0414
     20 C         142.9072  133.4586  156.7764 C.ar    1  UNL1        0.1022
     21 N         143.2431  134.7457  157.4695 N.ar    1  UNL1       -0.2249
     22 C         141.7313  139.7550  169.5657 C.3     1  UNL1        0.0458
     23 C         141.7430  139.7365  168.0659 C.3     1  UNL1        0.1581
     24 C         140.5206  140.5949  168.2025 C.3     1  UNL1        0.0458
     25 O         142.9631  138.8818  168.2429 O.3     1  UNL1       -0.4398
     26 C         143.4732  138.5146  166.8809 C.2     1  UNL1        0.4049
     27 O         144.6768  137.6683  166.5889 O.2     1  UNL1       -0.2262
     28 N         142.5686  139.1423  165.8623 N.am    1  UNL1       -0.2421
     29 C         141.4993  139.8974  166.5946 C.3     1  UNL1        0.1375
     30 C         140.3823  140.6767  165.9661 C.ar    1  UNL1       -0.0008
     31 C         140.4891  142.1672  165.8345 C.ar    1  UNL1       -0.0026
     32 C         139.3721  142.9464  165.2059 C.ar    1  UNL1       -0.0003
     33 C         138.1484  142.2354  164.7090 C.ar    1  UNL1       -0.0000
     34 C         138.0416  140.7450  164.8407 C.ar    1  UNL1       -0.0003
     35 C         139.1586  139.9657  165.4692 C.ar    1  UNL1       -0.0026
@<TRIPOS>BOND
     1    22    23    1
     2    23    24    1
     3    23    25    1
     4    25    26    1
     5    26    27    2
     6    26    28   am
     7     1    28    1
     8     1     2    1
     9     2     3    1
    10     3     4    1
    11     4     7    1
    12     7     8   ar
    13     8     9   ar
    14     9    10   ar
    15    10    11    1
    16    10    12   ar
    17    12    16    1
    18    16    17   ar
    19    17    18   ar
    20    18    19   ar
    21    19    20   ar
    22    20    21   ar
    23    12    13   ar
    24     4     5    1
    25     5     6    1
    26    28    29    1
    27    29    30    1
    28    30    31   ar
    29    31    32   ar
    30    32    33   ar
    31    33    34   ar
    32    34    35   ar
    33    29    23    1
    34    35    30   ar
    35     6     1    1
    36    13     7   ar
    37    21    16   ar
    38    11    14    1
    39    11    15    1
@<TRIPOS>MOLECULE
*****
 35 39 0 0 0
SMALL
GASTEIGER

@<TRIPOS>ATOM
      1 C         141.3280  139.6051  163.4142 C.3     1  UNL1        0.0789
      2 C         140.6646  140.2850  162.2534 C.3     1  UNL1        0.0203
      3 C         141.1177  139.9921  160.8538 C.3     1  UNL1        0.0061
      4 C         142.2343  139.0193  160.6150 C.3     1  UNL1        0.0240
      5 C         142.8977  138.3395  161.7759 C.3     1  UNL1        0.0061
      6 C         142.4446  138.6324  163.1754 C.3     1  UNL1        0.0203
      7 C         142.6874  138.7265  159.2154 C.ar    1  UNL1       -0.0032
      8 C         143.4409  139.7648  158.4383 C.ar    1  UNL1        0.0960
      9 N         143.8940  139.4719  157.0386 N.ar    1  UNL1       -0.2298
     10 C         143.5935  138.1407  156.4161 C.ar    1  UNL1        0.1283
     11 N         144.0466  137.8478  155.0165 N.pl3   1  UNL1       -0.3425
     12 C         142.8399  137.1023  157.1933 C.ar    1  UNL1        0.0666
     13 C         142.3869  137.3952  158.5929 C.ar    1  UNL1        0.0031
     14 H         144.5411  138.5293  154.5064 H       1  UNL1        0.1437
     15 H         143.8494  136.9740  154.6080 H       1  UNL1        0.1437
     16 C         142.5395  135.7710  156.5709 C.ar    1  UNL1        0.1649
     17 N         141.6593  135.6914  155.3588 N.ar    1  UNL1       -0.2249
     18 C         141.3588  134.3601  154.7363 C.ar    1  UNL1        0.1022
     19 C         141.9385  133.1085  155.3259 C.ar    1  UNL1        0.0414
     20 C         142.8187  133.1882  156.5379 C.ar    1  UNL1        0.1022
     21 N         143.1191  134.5195  157.1604 N.ar    1  UNL1       -0.2249
     22 C         140.0363  141.1460  168.3538 C.3     1  UNL1        0.0458
     23 C         140.5686  140.9886  166.9603 C.3     1  UNL1        0.1581
     24 C         141.2392  142.3016  167.2369 C.3     1  UNL1        0.0458
     25 O         139.7867  139.7086  166.9750 O.3     1  UNL1       -0.4398
     26 C         139.9761  139.0345  165.6485 C.2     1  UNL1        0.4049
     27 O         139.3725  137.7267  165.2299 O.2     1  UNL1       -0.2262
     28 N         140.8749  139.8980  164.8139 N.am    1  UNL1       -0.2421
     29 C         141.2412  141.1057  165.6246 C.3     1  UNL1        0.1375
     30 C         142.1248  142.2325  165.1782 C.ar    1  UNL1       -0.0008
     31 C         143.5913  142.2054  165.4926 C.ar    1  UNL1       -0.0026
     32 C         144.4749  143.3323  165.0461 C.ar    1  UNL1       -0.0003
     33 C         143.8921  144.4863  164.2853 C.ar    1  UNL1       -0.0000
     34 C         142.4257  144.5134  163.9710 C.ar    1  UNL1       -0.0003
     35 C         141.5421  143.3865  164.4174 C.ar    1  UNL1       -0.0026
@<TRIPOS>BOND
     1    22    23    1
     2    23    24    1
     3    23    25    1
     4    25    26    1
     5    26    27    2
     6    26    28   am
     7     1    28    1
     8     1     2    1
     9     2     3    1
    10     3     4    1
    11     4     7    1
    12     7     8   ar
    13     8     9   ar
    14     9    10   ar
    15    10    11    1
    16    10    12   ar
    17    12    16    1
    18    16    17   ar
    19    17    18   ar
    20    18    19   ar
    21    19    20   ar
    22    20    21   ar
    23    12    13   ar
    24     4     5    1
    25     5     6    1
    26    28    29    1
    27    29    30    1
    28    30    31   ar
    29    31    32   ar
    30    32    33   ar
    31    33    34   ar
    32    34    35   ar
    33    29    23    1
    34    35    30   ar
    35     6     1    1
    36    13     7   ar
    37    21    16   ar
    38    11    14    1
    39    11    15    1
@<TRIPOS>MOLECULE
*****
 35 39 0 0 0
SMALL
GASTEIGER

@<TRIPOS>ATOM
      1 C         139.9887  139.5623  163.8759 C.3     1  UNL1        0.0789
      2 C         139.8928  140.8074  163.0449 C.3     1  UNL1        0.0203
      3 C         139.7208  140.7055  161.5583 C.3     1  UNL1        0.0061
      4 C         139.6448  139.3586  160.9027 C.3     1  UNL1        0.0240
      5 C         139.7407  138.1135  161.7336 C.3     1  UNL1        0.0061
      6 C         139.9127  138.2154  163.2202 C.3     1  UNL1        0.0203
      7 C         139.4728  139.2567  159.4160 C.ar    1  UNL1       -0.0032
      8 C         138.4194  140.0710  158.7253 C.ar    1  UNL1        0.0960
      9 N         138.2474  139.9692  157.2387 N.ar    1  UNL1       -0.2298
     10 C         139.1289  139.0530  156.4427 C.ar    1  UNL1        0.1283
     11 N         138.9570  138.9511  154.9561 N.pl3   1  UNL1       -0.3425
     12 C         140.1824  138.2387  157.1335 C.ar    1  UNL1        0.0666
     13 C         140.3544  138.3405  158.6201 C.ar    1  UNL1        0.0031
     14 H         138.2656  139.4856  154.5028 H       1  UNL1        0.1437
     15 H         139.5356  138.3498  154.4338 H       1  UNL1        0.1437
     16 C         141.0640  137.3225  156.3375 C.ar    1  UNL1        0.1649
     17 N         140.4539  136.2703  155.4596 N.ar    1  UNL1       -0.2249
     18 C         141.3354  135.3541  154.6637 C.ar    1  UNL1        0.1022
     19 C         142.8270  135.4901  154.7457 C.ar    1  UNL1        0.0414
     20 C         143.4370  136.5423  155.6236 C.ar    1  UNL1        0.1022
     21 N         142.5555  137.4585  156.4195 N.ar    1  UNL1       -0.2249
     22 C         141.1697  140.0540  169.0533 C.3     1  UNL1        0.0458
     23 C         141.1503  139.9876  167.5549 C.3     1  UNL1        0.1581
     24 C         142.6044  140.3349  167.6777 C.3     1  UNL1        0.0458
     25 O         139.7002  139.6542  167.7455 O.3     1  UNL1       -0.4398
     26 C         139.0887  139.4543  166.3905 C.2     1  UNL1        0.4049
     27 O         137.6565  139.1058  166.1124 O.2     1  UNL1       -0.2262
     28 N         140.1607  139.6642  165.3625 N.am    1  UNL1       -0.2421
     29 C         141.4348  139.9938  166.0822 C.3     1  UNL1        0.1375
     30 C         142.7607  140.2794  165.4416 C.ar    1  UNL1       -0.0008
     31 C         143.1804  141.6967  165.1862 C.ar    1  UNL1       -0.0026
     32 C         144.5063  141.9823  164.5456 C.ar    1  UNL1       -0.0003
     33 C         145.4126  140.8508  164.1605 C.ar    1  UNL1       -0.0000
     34 C         144.9929  139.4335  164.4159 C.ar    1  UNL1       -0.0003
     35 C         143.6670  139.1479  165.0565 C.ar    1  UNL1       -0.0026
@<TRIPOS>BOND
     1    22    23    1
     2    23    24    1
     3    23    25    1
     4    25    26    1
     5    26    27    2
     6    26    28   am
     7     1    28    1
     8     1     2    1
     9     2     3    1
    10     3     4    1
    11     4     7    1
    12     7     8   ar
    13     8     9   ar
    14     9    10   ar
    15    10    11    1
    16    10    12   ar
    17    12    16    1
    18    16    17   ar
    19    17    18   ar
    20    18    19   ar
    21    19    20   ar
    22    20    21   ar
    23    12    13   ar
    24     4     5    1
    25     5     6    1
    26    28    29    1
    27    29    30    1
    28    30    31   ar
    29    31    32   ar
    30    32    33   ar
    31    33    34   ar
    32    34    35   ar
    33    29    23    1
    34    35    30   ar
    35     6     1    1
    36    13     7   ar
    37    21    16   ar
    38    11    14    1
    39    11    15    1
@<TRIPOS>MOLECULE
*****
 35 39 0 0 0
SMALL
GASTEIGER

@<TRIPOS>ATOM
      1 C         142.1253  139.9814  163.3481 C.3     1  UNL1        0.0789
      2 C         143.4901  140.1944  162.7634 C.3     1  UNL1        0.0203
      3 C         143.7650  139.8075  161.3405 C.3     1  UNL1        0.0061
      4 C         142.6753  139.2076  160.5023 C.3     1  UNL1        0.0240
      5 C         141.3105  138.9946  161.0871 C.3     1  UNL1        0.0061
      6 C         141.0355  139.3815  162.5100 C.3     1  UNL1        0.0203
      7 C         142.9503  138.8207  159.0794 C.ar    1  UNL1       -0.0032
      8 C         143.5238  139.8268  158.1261 C.ar    1  UNL1        0.0960
      9 N         143.7989  139.4399  156.7031 N.ar    1  UNL1       -0.2298
     10 C         143.5003  138.0469  156.2335 C.ar    1  UNL1        0.1283
     11 N         143.7754  137.6599  154.8107 N.pl3   1  UNL1       -0.3425
     12 C         142.9268  137.0408  157.1869 C.ar    1  UNL1        0.0666
     13 C         142.6518  137.4277  158.6098 C.ar    1  UNL1        0.0031
     14 H         144.1518  138.3203  154.1849 H       1  UNL1        0.1437
     15 H         143.5794  136.7457  154.5025 H       1  UNL1        0.1437
     16 C         142.6283  135.6478  156.7174 C.ar    1  UNL1        0.1649
     17 N         141.6700  135.4274  155.5845 N.ar    1  UNL1       -0.2249
     18 C         141.3715  134.0344  155.1150 C.ar    1  UNL1        0.1022
     19 C         142.0312  132.8618  155.7783 C.ar    1  UNL1        0.0414
     20 C         142.9894  133.0823  156.9111 C.ar    1  UNL1        0.1022
     21 N         143.2879  134.4753  157.3806 N.ar    1  UNL1       -0.2249
     22 C         140.8863  141.8440  168.1894 C.3     1  UNL1        0.0458
     23 C         141.0892  141.5903  166.7250 C.3     1  UNL1        0.1581
     24 C         140.3710  142.8968  166.5598 C.3     1  UNL1        0.0458
     25 O         141.7649  140.3368  167.1964 O.3     1  UNL1       -0.4398
     26 C         142.2353  139.5816  165.9888 C.2     1  UNL1        0.4049
     27 O         142.9629  138.2700  165.9974 O.2     1  UNL1       -0.2262
     28 N         141.8502  140.3683  164.7711 N.am    1  UNL1       -0.2421
     29 C         141.1419  141.6097  165.2261 C.3     1  UNL1        0.1375
     30 C         140.5842  142.6823  164.3381 C.ar    1  UNL1       -0.0008
     31 C         139.1714  142.5868  163.8432 C.ar    1  UNL1       -0.0026
     32 C         138.6137  143.6594  162.9552 C.ar    1  UNL1       -0.0003
     33 C         139.4687  144.8275  162.5620 C.ar    1  UNL1       -0.0000
     34 C         140.8815  144.9229  163.0569 C.ar    1  UNL1       -0.0003
     35 C         141.4392  143.8503  163.9449 C.ar    1  UNL1       -0.0026
@<TRIPOS>BOND
     1    22    23    1
     2    23    24    1
     3    23    25    1
     4    25    26    1
     5    26    27    2
     6    26    28   am
     7     1    28    1
     8     1     2    1
     9     2     3    1
    10     3     4    1
    11     4     7    1
    12     7     8   ar
    13     8     9   ar
    14     9    10   ar
    15    10    11    1
    16    10    12   ar
    17    12    16    1
    18    16    17   ar
    19    17    18   ar
    20    18    19   ar
    21    19    20   ar
    22    20    21   ar
    23    12    13   ar
    24     4     5    1
    25     5     6    1
    26    28    29    1
    27    29    30    1
    28    30    31   ar
    29    31    32   ar
    30    32    33   ar
    31    33    34   ar
    32    34    35   ar
    33    29    23    1
    34    35    30   ar
    35     6     1    1
    36    13     7   ar
    37    21    16   ar
    38    11    14    1
    39    11    15    1
@<TRIPOS>MOLECULE
*****
 35 39 0 0 0
SMALL
GASTEIGER

@<TRIPOS>ATOM
      1 C         143.1708  139.7801  161.5375 C.3     1  UNL1        0.0789
      2 C         143.3340  138.2891  161.5286 C.3     1  UNL1        0.0203
      3 C         143.1292  137.5198  160.2573 C.3     1  UNL1        0.0061
      4 C         142.7612  138.2417  158.9949 C.3     1  UNL1        0.0240
      5 C         142.5981  139.7327  159.0038 C.3     1  UNL1        0.0061
      6 C         142.8028  140.5019  160.2752 C.3     1  UNL1        0.0203
      7 C         142.5564  137.4723  157.7235 C.ar    1  UNL1       -0.0032
      8 C         142.0060  138.1615  156.5103 C.ar    1  UNL1        0.0960
      9 N         141.8013  137.3922  155.2389 N.ar    1  UNL1       -0.2298
     10 C         142.1469  135.9337  155.1809 C.ar    1  UNL1        0.1283
     11 N         141.9421  135.1644  153.9096 N.pl3   1  UNL1       -0.3425
     12 C         142.6973  135.2445  156.3943 C.ar    1  UNL1        0.0666
     13 C         142.9021  136.0139  157.6655 C.ar    1  UNL1        0.0031
     14 H         141.5809  135.6167  153.1133 H       1  UNL1        0.1437
     15 H         142.1690  134.2071  153.8716 H       1  UNL1        0.1437
     16 C         143.0430  133.7861  156.3363 C.ar    1  UNL1        0.1649
     17 N         141.9727  132.7721  156.0595 N.ar    1  UNL1       -0.2249
     18 C         142.3184  131.3136  156.0015 C.ar    1  UNL1        0.1022
     19 C         143.7342  130.8691  156.2202 C.ar    1  UNL1        0.0414
     20 C         144.8044  131.8830  156.4970 C.ar    1  UNL1        0.1022
     21 N         144.4587  133.3415  156.5550 N.ar    1  UNL1       -0.2249
     22 C         143.4037  142.2541  166.2564 C.3     1  UNL1        0.0458
     23 C         143.0703  141.4245  165.0520 C.3     1  UNL1        0.1581
     24 C         141.8992  140.9804  165.8774 C.3     1  UNL1        0.0458
     25 O         144.3112  142.0421  164.4785 O.3     1  UNL1       -0.4398
     26 C         144.4998  141.5012  163.0921 C.2     1  UNL1        0.4049
     27 O         145.6167  141.8508  162.1538 O.2     1  UNL1       -0.2262
     28 N         143.3756  140.5494  162.8089 N.am    1  UNL1       -0.2421
     29 C         142.4921  140.5020  164.0202 C.3     1  UNL1        0.1375
     30 C         141.2487  139.6770  164.1728 C.ar    1  UNL1       -0.0008
     31 C         139.9147  140.2558  163.8045 C.ar    1  UNL1       -0.0026
     32 C         138.6713  139.4308  163.9571 C.ar    1  UNL1       -0.0003
     33 C         138.7618  138.0271  164.4782 C.ar    1  UNL1       -0.0000
     34 C         140.0957  137.4484  164.8465 C.ar    1  UNL1       -0.0003
     35 C         141.3391  138.2734  164.6938 C.ar    1  UNL1       -0.0026
@<TRIPOS>BOND
     1    22    23    1
     2    23    24    1
     3    23    25    1
     4    25    26    1
     5    26    27    2
     6    26    28   am
     7     1    28    1
     8     1     2    1
     9     2     3    1
    10     3     4    1
    11     4     7    1
    12     7     8   ar
    13     8     9   ar
    14     9    10   ar
    15    10    11    1
    16    10    12   ar
    17    12    16    1
    18    16    17   ar
    19    17    18   ar
    20    18    19   ar
    21    19    20   ar
    22    20    21   ar
    23    12    13   ar
    24     4     5    1
    25     5     6    1
    26    28    29    1
    27    29    30    1
    28    30    31   ar
    29    31    32   ar
    30    32    33   ar
    31    33    34   ar
    32    34    35   ar
    33    29    23    1
    34    35    30   ar
    35     6     1    1
    36    13     7   ar
    37    21    16   ar
    38    11    14    1
    39    11    15    1
@<TRIPOS>MOLECULE
*****
 35 39 0 0 0
SMALL
GASTEIGER

@<TRIPOS>ATOM
      1 C         139.4825  139.8646  163.6524 C.3     1  UNL1        0.0789
      2 C         140.7579  139.6767  162.8854 C.3     1  UNL1        0.0203
      3 C         140.7175  139.4865  161.3981 C.3     1  UNL1        0.0061
      4 C         139.4018  139.4841  160.6778 C.3     1  UNL1        0.0240
      5 C         138.1265  139.6720  161.4447 C.3     1  UNL1        0.0061
      6 C         138.1669  139.8622  162.9320 C.3     1  UNL1        0.0203
      7 C         139.3614  139.2939  159.1904 C.ar    1  UNL1       -0.0032
      8 C         138.3918  140.0810  158.3596 C.ar    1  UNL1        0.0960
      9 N         138.3515  139.8908  156.8722 N.ar    1  UNL1       -0.2298
     10 C         139.2808  138.9134  156.2157 C.ar    1  UNL1        0.1283
     11 N         139.2405  138.7232  154.7284 N.pl3   1  UNL1       -0.3425
     12 C         140.2505  138.1263  157.0465 C.ar    1  UNL1        0.0666
     13 C         140.2908  138.3165  158.5338 C.ar    1  UNL1        0.0031
     14 H         138.6041  139.2398  154.1831 H       1  UNL1        0.1437
     15 H         139.8505  138.0817  154.2974 H       1  UNL1        0.1437
     16 C         141.1798  137.1489  156.3899 C.ar    1  UNL1        0.1649
     17 N         142.6540  137.2194  156.6581 N.ar    1  UNL1       -0.2249
     18 C         143.5833  136.2420  156.0016 C.ar    1  UNL1        0.1022
     19 C         143.0385  135.1941  155.0768 C.ar    1  UNL1        0.0414
     20 C         141.5643  135.1236  154.8087 C.ar    1  UNL1        0.1022
     21 N         140.6350  136.1010  155.4652 N.ar    1  UNL1       -0.2249
     22 C         139.8788  141.0676  168.8330 C.3     1  UNL1        0.0458
     23 C         139.9058  141.0188  167.3340 C.3     1  UNL1        0.1581
     24 C         140.5418  142.3716  167.4583 C.3     1  UNL1        0.0458
     25 O         139.2641  139.6761  167.5231 O.3     1  UNL1       -0.4398
     26 C         139.0275  139.0804  166.1670 C.2     1  UNL1        0.4049
     27 O         138.4048  137.7448  165.8872 O.2     1  UNL1       -0.2262
     28 N         139.5229  140.0548  165.1398 N.am    1  UNL1       -0.2421
     29 C         140.0657  141.2528  165.8610 C.3     1  UNL1        0.1375
     30 C         140.6635  142.4709  165.2216 C.ar    1  UNL1       -0.0008
     31 C         142.1438  142.5471  164.9915 C.ar    1  UNL1       -0.0026
     32 C         142.7416  143.7652  164.3521 C.ar    1  UNL1       -0.0003
     33 C         141.8592  144.9071  163.9428 C.ar    1  UNL1       -0.0000
     34 C         140.3789  144.8308  164.1730 C.ar    1  UNL1       -0.0003
     35 C         139.7811  143.6127  164.8124 C.ar    1  UNL1       -0.0026
@<TRIPOS>BOND
     1    22    23    1
     2    23    24    1
     3    23    25    1
     4    25    26    1
     5    26    27    2
     6    26    28   am
     7     1    28    1
     8     1     2    1
     9     2     3    1
    10     3     4    1
    11     4     7    1
    12     7     8   ar
    13     8     9   ar
    14     9    10   ar
    15    10    11    1
    16    10    12   ar
    17    12    16    1
    18    16    17   ar
    19    17    18   ar
    20    18    19   ar
    21    19    20   ar
    22    20    21   ar
    23    12    13   ar
    24     4     5    1
    25     5     6    1
    26    28    29    1
    27    29    30    1
    28    30    31   ar
    29    31    32   ar
    30    32    33   ar
    31    33    34   ar
    32    34    35   ar
    33    29    23    1
    34    35    30   ar
    35     6     1    1
    36    13     7   ar
    37    21    16   ar
    38    11    14    1
    39    11    15    1
@<TRIPOS>MOLECULE
*****
 35 39 0 0 0
SMALL
GASTEIGER

@<TRIPOS>ATOM
      1 C         140.4802  139.7197  163.9874 C.3     1  UNL1        0.0789
      2 C         141.7970  139.1107  163.6063 C.3     1  UNL1        0.0203
      3 C         142.0601  138.7244  162.1810 C.3     1  UNL1        0.0061
      4 C         141.0064  138.9469  161.1369 C.3     1  UNL1        0.0240
      5 C         139.6896  139.5558  161.5180 C.3     1  UNL1        0.0061
      6 C         139.4265  139.9422  162.9433 C.3     1  UNL1        0.0203
      7 C         141.2695  138.5605  159.7115 C.ar    1  UNL1       -0.0032
      8 C         142.6092  138.0126  159.3181 C.ar    1  UNL1        0.0960
      9 N         142.8723  137.6262  157.8927 N.ar    1  UNL1       -0.2298
     10 C         141.7957  137.7877  156.8609 C.ar    1  UNL1        0.1283
     11 N         142.0587  137.4013  155.4356 N.pl3   1  UNL1       -0.3425
     12 C         140.4559  138.3356  157.2544 C.ar    1  UNL1        0.0666
     13 C         140.1928  138.7220  158.6797 C.ar    1  UNL1        0.0031
     14 H         142.9381  137.0417  155.1774 H       1  UNL1        0.1437
     15 H         141.3521  137.5073  154.7584 H       1  UNL1        0.1437
     16 C         139.3792  138.4972  156.2226 C.ar    1  UNL1        0.1649
     17 N         138.7874  137.2882  155.5605 N.ar    1  UNL1       -0.2249
     18 C         137.7108  137.4497  154.5287 C.ar    1  UNL1        0.1022
     19 C         137.2258  138.8202  154.1589 C.ar    1  UNL1        0.0414
     20 C         137.8176  140.0291  154.8210 C.ar    1  UNL1        0.1022
     21 N         138.8943  139.8676  155.8528 N.ar    1  UNL1       -0.2249
     22 C         139.9269  141.5402  168.9696 C.3     1  UNL1        0.0458
     23 C         140.2881  141.2763  167.5378 C.3     1  UNL1        0.1581
     24 C         141.1642  142.4829  167.7008 C.3     1  UNL1        0.0458
     25 O         139.3363  140.1249  167.6743 O.3     1  UNL1       -0.4398
     26 C         139.2925  139.4017  166.3609 C.2     1  UNL1        0.4049
     27 O         138.4687  138.1873  166.0502 O.2     1  UNL1       -0.2262
     28 N         140.2171  140.1061  165.4128 N.am    1  UNL1       -0.2421
     29 C         140.8324  141.2646  166.1402 C.3     1  UNL1        0.1375
     30 C         141.8188  142.2403  165.5700 C.ar    1  UNL1       -0.0008
     31 C         141.3392  143.3892  164.7332 C.ar    1  UNL1       -0.0026
     32 C         142.3257  144.3648  164.1631 C.ar    1  UNL1       -0.0003
     33 C         143.7916  144.1916  164.4296 C.ar    1  UNL1       -0.0000
     34 C         144.2711  143.0428  165.2664 C.ar    1  UNL1       -0.0003
     35 C         143.2847  142.0671  165.8365 C.ar    1  UNL1       -0.0026
@<TRIPOS>BOND
     1    22    23    1
     2    23    24    1
     3    23    25    1
     4    25    26    1
     5    26    27    2
     6    26    28   am
     7     1    28    1
     8     1     2    1
     9     2     3    1
    10     3     4    1
    11     4     7    1
    12     7     8   ar
    13     8     9   ar
    14     9    10   ar
    15    10    11    1
    16    10    12   ar
    17    12    16    1
    18    16    17   ar
    19    17    18   ar
    20    18    19   ar
    21    19    20   ar
    22    20    21   ar
    23    12    13   ar
    24     4     5    1
    25     5     6    1
    26    28    29    1
    27    29    30    1
    28    30    31   ar
    29    31    32   ar
    30    32    33   ar
    31    33    34   ar
    32    34    35   ar
    33    29    23    1
    34    35    30   ar
    35     6     1    1
    36    13     7   ar
    37    21    16   ar
    38    11    14    1
    39    11    15    1
@<TRIPOS>MOLECULE
*****
 35 39 0 0 0
SMALL
GASTEIGER

@<TRIPOS>ATOM
      1 C         139.9769  140.1078  163.8464 C.3     1  UNL1        0.0789
      2 C         139.8508  141.4492  163.1871 C.3     1  UNL1        0.0203
      3 C         139.6290  141.5392  161.7064 C.3     1  UNL1        0.0061
      4 C         139.5333  140.2878  160.8849 C.3     1  UNL1        0.0240
      5 C         139.6595  138.9464  161.5441 C.3     1  UNL1        0.0061
      6 C         139.8812  138.8564  163.0249 C.3     1  UNL1        0.0203
      7 C         139.3116  140.3779  159.4041 C.ar    1  UNL1       -0.0032
      8 C         139.2684  139.1287  158.5748 C.ar    1  UNL1        0.0960
      9 N         139.0466  139.2188  157.0940 N.ar    1  UNL1       -0.2298
     10 C         138.8680  140.5580  156.4425 C.ar    1  UNL1        0.1283
     11 N         138.6463  140.6481  154.9617 N.pl3   1  UNL1       -0.3425
     12 C         138.9112  141.8072  157.2718 C.ar    1  UNL1        0.0666
     13 C         139.1330  141.7171  158.7525 C.ar    1  UNL1        0.0031
     14 H         138.6179  139.8283  154.4174 H       1  UNL1        0.1437
     15 H         138.5291  141.5271  154.5341 H       1  UNL1        0.1437
     16 C         138.7327  143.1465  156.6203 C.ar    1  UNL1        0.1649
     17 N         137.5874  143.3760  155.6791 N.ar    1  UNL1       -0.2249
     18 C         137.4088  144.7152  155.0276 C.ar    1  UNL1        0.1022
     19 C         138.3755  145.8250  155.3173 C.ar    1  UNL1        0.0414
     20 C         139.5207  145.5956  156.2584 C.ar    1  UNL1        0.1022
     21 N         139.6993  144.2563  156.9099 N.ar    1  UNL1       -0.2249
     22 C         141.3317  139.9294  169.0015 C.3     1  UNL1        0.0458
     23 C         141.2622  140.0559  167.5085 C.3     1  UNL1        0.1581
     24 C         142.7214  140.3830  167.6258 C.3     1  UNL1        0.0458
     25 O         139.8175  139.7024  167.7033 O.3     1  UNL1       -0.4398
     26 C         139.1602  139.6788  166.3552 C.2     1  UNL1        0.4049
     27 O         137.7178  139.3704  166.0830 O.2     1  UNL1       -0.2262
     28 N         140.1987  140.0177  165.3272 N.am    1  UNL1       -0.2421
     29 C         141.4977  140.2508  166.0400 C.3     1  UNL1        0.1375
     30 C         142.8032  140.6149  165.3971 C.ar    1  UNL1       -0.0008
     31 C         143.2098  142.0547  165.2884 C.ar    1  UNL1       -0.0026
     32 C         144.5152  142.4188  164.6456 C.ar    1  UNL1       -0.0003
     33 C         145.4141  141.3432  164.1114 C.ar    1  UNL1       -0.0000
     34 C         145.0074  139.9035  164.2202 C.ar    1  UNL1       -0.0003
     35 C         143.7020  139.5394  164.8630 C.ar    1  UNL1       -0.0026
@<TRIPOS>BOND
     1    22    23    1
     2    23    24    1
     3    23    25    1
     4    25    26    1
     5    26    27    2
     6    26    28   am
     7     1    28    1
     8     1     2    1
     9     2     3    1
    10     3     4    1
    11     4     7    1
    12     7     8   ar
    13     8     9   ar
    14     9    10   ar
    15    10    11    1
    16    10    12   ar
    17    12    16    1
    18    16    17   ar
    19    17    18   ar
    20    18    19   ar
    21    19    20   ar
    22    20    21   ar
    23    12    13   ar
    24     4     5    1
    25     5     6    1
    26    28    29    1
    27    29    30    1
    28    30    31   ar
    29    31    32   ar
    30    32    33   ar
    31    33    34   ar
    32    34    35   ar
    33    29    23    1
    34    35    30   ar
    35     6     1    1
    36    13     7   ar
    37    21    16   ar
    38    11    14    1
    39    11    15    1
@<TRIPOS>MOLECULE
*****
 35 39 0 0 0
SMALL
GASTEIGER

@<TRIPOS>ATOM
      1 C         142.6202  139.0239  164.3783 C.3     1  UNL1        0.0789
      2 C         143.6578  139.7902  163.6128 C.3     1  UNL1        0.0203
      3 C         143.7696  139.6221  162.1265 C.3     1  UNL1        0.0061
      4 C         142.8437  138.6877  161.4057 C.3     1  UNL1        0.0240
      5 C         141.8061  137.9214  162.1711 C.3     1  UNL1        0.0061
      6 C         141.6943  138.0895  163.6574 C.3     1  UNL1        0.0203
      7 C         142.9555  138.5196  159.9192 C.ar    1  UNL1       -0.0032
      8 C         142.5964  137.2094  159.2835 C.ar    1  UNL1        0.0960
      9 N         142.7082  137.0413  157.7971 N.ar    1  UNL1       -0.2298
     10 C         143.1792  138.1835  156.9465 C.ar    1  UNL1        0.1283
     11 N         143.2910  138.0155  155.4602 N.pl3   1  UNL1       -0.3425
     12 C         143.5384  139.4938  157.5823 C.ar    1  UNL1        0.0666
     13 C         143.4265  139.6618  159.0687 C.ar    1  UNL1        0.0031
     14 H         143.0553  137.1555  155.0429 H       1  UNL1        0.1437
     15 H         143.6001  138.7652  154.9019 H       1  UNL1        0.1437
     16 C         144.0094  140.6360  156.7318 C.ar    1  UNL1        0.1649
     17 N         145.4272  141.1145  156.8368 N.ar    1  UNL1       -0.2249
     18 C         145.8982  142.2567  155.9862 C.ar    1  UNL1        0.1022
     19 C         144.9514  142.9204  155.0306 C.ar    1  UNL1        0.0414
     20 C         143.5337  142.4419  154.9256 C.ar    1  UNL1        0.1022
     21 N         143.0627  141.2997  155.7762 N.ar    1  UNL1       -0.2249
     22 C         141.7463  139.9597  169.5555 C.3     1  UNL1        0.0458
     23 C         141.7308  139.8829  168.0575 C.3     1  UNL1        0.1581
     24 C         140.5231  140.7637  168.1819 C.3     1  UNL1        0.0458
     25 O         142.9419  139.0182  168.2464 O.3     1  UNL1       -0.4398
     26 C         143.4224  138.5911  166.8912 C.2     1  UNL1        0.4049
     27 O         144.6087  137.7168  166.6115 O.2     1  UNL1       -0.2262
     28 N         142.5084  139.1920  165.8647 N.am    1  UNL1       -0.2421
     29 C         141.4630  139.9903  166.5856 C.3     1  UNL1        0.1375
     30 C         140.3458  140.7608  165.9467 C.ar    1  UNL1       -0.0008
     31 C         140.4614  142.2466  165.7756 C.ar    1  UNL1       -0.0026
     32 C         139.3442  143.0171  165.1367 C.ar    1  UNL1       -0.0003
     33 C         138.1114  142.3020  164.6689 C.ar    1  UNL1       -0.0000
     34 C         137.9958  140.8163  164.8400 C.ar    1  UNL1       -0.0003
     35 C         139.1130  140.0458  165.4789 C.ar    1  UNL1       -0.0026
@<TRIPOS>BOND
     1    22    23    1
     2    23    24    1
     3    23    25    1
     4    25    26    1
     5    26    27    2
     6    26    28   am
     7     1    28    1
     8     1     2    1
     9     2     3    1
    10     3     4    1
    11     4     7    1
    12     7     8   ar
    13     8     9   ar
    14     9    10   ar
    15    10    11    1
    16    10    12   ar
    17    12    16    1
    18    16    17   ar
    19    17    18   ar
    20    18    19   ar
    21    19    20   ar
    22    20    21   ar
    23    12    13   ar
    24     4     5    1
    25     5     6    1
    26    28    29    1
    27    29    30    1
    28    30    31   ar
    29    31    32   ar
    30    32    33   ar
    31    33    34   ar
    32    34    35   ar
    33    29    23    1
    34    35    30   ar
    35     6     1    1
    36    13     7   ar
    37    21    16   ar
    38    11    14    1
    39    11    15    1
