@<TRIPOS>MOLECULE
*****
 36 40 0 0 0
SMALL
GASTEIGER

@<TRIPOS>ATOM
      1 N         142.8461  140.6678  166.6559 N.3     1  UNL1       -0.2750
      2 C         143.1260  142.1057  166.9789 C.3     1  UNL1        0.0594
      3 C         143.1218  142.2548  168.4715 C.3     1  UNL1        0.0174
      4 C         142.8392  140.9091  169.0709 C.3     1  UNL1        0.0174
      5 C         142.6688  139.9283  167.9489 C.3     1  UNL1        0.0594
      6 C         142.5493  139.1809  166.6425 C.3     1  UNL1        0.0386
      7 C         142.7503  140.0492  165.4361 C.3     1  UNL1        0.0890
      8 C         143.0387  141.5117  165.6043 C.3     1  UNL1        0.0386
      9 N         142.6629  139.4552  164.0615 N.ar    1  UNL1       -0.3202
     10 C         142.0850  138.1151  163.7152 C.ar    1  UNL1        0.1201
     11 C         141.4928  137.1336  164.6827 C.3     1  UNL1        0.0718
     12 N         142.2031  137.9288  162.2315 N.ar    1  UNL1       -0.2339
     13 C         142.8541  139.1537  161.6609 C.ar    1  UNL1        0.0919
     14 C         143.1383  140.0972  162.7919 C.ar    1  UNL1        0.0549
     15 C         143.7932  141.4188  162.5195 C.3     1  UNL1        0.0666
     16 C         144.1638  141.7971  161.1161 C.3     1  UNL1        0.1000
     17 N         143.8796  140.8537  159.9851 N.am    1  UNL1       -0.2734
     18 C         144.2503  141.2320  158.5817 C.2     1  UNL1        0.2264
     19 C         144.9052  142.5537  158.3093 C.3     1  UNL1        0.0948
     20 O         144.0404  140.4152  157.3412 O.2     1  UNL1       -0.2748
     21 C         143.2247  139.5320  160.2575 C.3     1  UNL1        0.1405
     22 C         142.7587  140.0739  165.2813 C.3     1  UNL1        0.0741
     23 C         141.4929  140.2039  164.4871 C.3     1  UNL1        0.0414
     24 C         140.3220  140.9475  165.0583 C.3     1  UNL1        0.0955
     25 C         139.9887  142.3212  164.5565 C.ar    1  UNL1       -0.0022
     26 C         140.2974  142.6967  163.1375 C.ar    1  UNL1       -0.0025
     27 C         139.9641  144.0703  162.6357 C.ar    1  UNL1        0.0020
     28 C         139.3220  145.0685  163.5529 C.ar    1  UNL1        0.0296
     29 C         139.0133  144.6930  164.9720 C.ar    1  UNL1        0.1399
     30 F         138.3777  145.5607  166.0176 F       1  UNL1       -0.2042
     31 C         139.3466  143.3194  165.4738 C.ar    1  UNL1        0.0270
     32 C         137.7720  138.5127  166.8801 C.3     1  UNL1        0.0946
     33 C         138.6095  139.1429  165.8070 C.2     1  UNL1        0.2232
     34 O         138.3338  138.3628  164.5559 O.2     1  UNL1       -0.2751
     35 N         139.4845  140.3172  166.1313 N.am    1  UNL1       -0.3021
     36 H         139.5092  140.6744  167.0484 H       1  UNL1        0.1497
@<TRIPOS>BOND
     1    32    33    1
     2    33    34    2
     3    33    35   am
     4    35    24    1
     5    24    23    1
     6    23    22    1
     7    22     1    1
     8     1     2    1
     9     2     3    1
    10     3     4    1
    11     5     4    1
    12     5     6    1
    13     6     7    1
    14     7     9    1
    15     9    10   ar
    16    10    11    1
    17    10    12   ar
    18    12    13   ar
    19    13    14   ar
    20    14    15    1
    21    15    16    1
    22    16    17    1
    23    17    18   am
    24    18    19    1
    25    18    20    2
    26    17    21    1
    27     7     8    1
    28    24    25    1
    29    25    26   ar
    30    26    27   ar
    31    27    28   ar
    32    28    29   ar
    33    29    30    1
    34    29    31   ar
    35     5     1    1
    36    14     9   ar
    37    31    25   ar
    38     8     2    1
    39    21    13    1
    40    35    36    1
@<TRIPOS>MOLECULE
*****
 36 40 0 0 0
SMALL
GASTEIGER

@<TRIPOS>ATOM
      1 N         142.9699  140.6305  167.0493 N.3     1  UNL1       -0.2750
      2 C         142.7565  141.4803  168.2669 C.3     1  UNL1        0.0594
      3 C         142.4829  140.5687  169.4263 C.3     1  UNL1        0.0174
      4 C         142.5272  139.1555  168.9253 C.3     1  UNL1        0.0174
      5 C         142.8282  139.1937  167.4563 C.3     1  UNL1        0.0594
      6 C         143.1353  139.5320  166.0174 C.3     1  UNL1        0.0386
      7 C         143.2480  141.0054  165.7603 C.3     1  UNL1        0.0890
      8 C         143.0585  141.9796  166.8851 C.3     1  UNL1        0.0386
      9 N         143.5501  141.5048  164.3785 N.ar    1  UNL1       -0.3202
     10 C         144.0792  142.8639  164.0282 C.ar    1  UNL1        0.1201
     11 C         144.3992  143.9624  164.9983 C.3     1  UNL1        0.0718
     12 N         144.2322  142.9317  162.5376 N.ar    1  UNL1       -0.2339
     13 C         143.7976  141.6145  161.9666 C.ar    1  UNL1        0.0919
     14 C         143.3760  140.7326  163.1043 C.ar    1  UNL1        0.0549
     15 C         142.8881  139.3403  162.8331 C.3     1  UNL1        0.0666
     16 C         142.8218  138.8300  161.4242 C.3     1  UNL1        0.1000
     17 N         143.2434  139.7120  160.2864 N.am    1  UNL1       -0.2734
     18 C         143.1771  139.2016  158.8774 C.2     1  UNL1        0.2264
     19 C         142.6892  137.8094  158.6062 C.3     1  UNL1        0.0948
     20 O         143.5565  139.9431  157.6300 O.2     1  UNL1       -0.2748
     21 C         143.7313  141.1042  160.5576 C.3     1  UNL1        0.1405
     22 C         143.2720  141.1298  165.6676 C.3     1  UNL1        0.0741
     23 C         142.1508  141.4910  164.7389 C.3     1  UNL1        0.0414
     24 C         140.7636  141.6825  165.2765 C.3     1  UNL1        0.0955
     25 C         139.8970  140.4908  165.5576 C.ar    1  UNL1       -0.0022
     26 C         139.3065  140.2983  166.9230 C.ar    1  UNL1       -0.0025
     27 C         138.4400  139.1067  167.2042 C.ar    1  UNL1        0.0020
     28 C         138.1639  138.1076  166.1200 C.ar    1  UNL1        0.0296
     29 C         138.7544  138.3001  164.7546 C.ar    1  UNL1        0.1399
     30 F         138.5830  137.4057  163.5626 F       1  UNL1       -0.2042
     31 C         139.6210  139.4917  164.4734 C.ar    1  UNL1        0.0270
     32 C         138.3749  144.8517  165.2674 C.3     1  UNL1        0.0946
     33 C         138.8956  143.4686  165.0110 C.2     1  UNL1        0.2232
     34 O         137.8326  142.7670  164.2187 O.2     1  UNL1       -0.2751
     35 N         140.2429  143.0656  165.5329 N.am    1  UNL1       -0.3021
     36 H         140.7855  143.7090  166.0437 H       1  UNL1        0.1497
@<TRIPOS>BOND
     1    32    33    1
     2    33    34    2
     3    33    35   am
     4    35    24    1
     5    24    23    1
     6    23    22    1
     7    22     1    1
     8     1     2    1
     9     2     3    1
    10     3     4    1
    11     5     4    1
    12     5     6    1
    13     6     7    1
    14     7     9    1
    15     9    10   ar
    16    10    11    1
    17    10    12   ar
    18    12    13   ar
    19    13    14   ar
    20    14    15    1
    21    15    16    1
    22    16    17    1
    23    17    18   am
    24    18    19    1
    25    18    20    2
    26    17    21    1
    27     7     8    1
    28    24    25    1
    29    25    26   ar
    30    26    27   ar
    31    27    28   ar
    32    28    29   ar
    33    29    30    1
    34    29    31   ar
    35     5     1    1
    36    14     9   ar
    37    31    25   ar
    38     8     2    1
    39    21    13    1
    40    35    36    1
@<TRIPOS>MOLECULE
*****
 36 40 0 0 0
SMALL
GASTEIGER

@<TRIPOS>ATOM
      1 N         139.1499  140.2188  164.2861 N.3     1  UNL1       -0.2750
      2 C         139.9967  139.0103  164.0162 C.3     1  UNL1        0.0594
      3 C         139.5753  137.9277  164.9651 C.3     1  UNL1        0.0174
      4 C         138.4680  138.4670  165.8213 C.3     1  UNL1        0.0174
      5 C         138.2051  139.8829  165.4017 C.3     1  UNL1        0.0594
      6 C         138.1623  141.2579  164.7798 C.3     1  UNL1        0.0386
      7 C         139.1628  141.4477  163.6786 C.3     1  UNL1        0.0890
      8 C         140.0801  140.3239  163.2968 C.3     1  UNL1        0.0386
      9 N         139.2462  142.7613  162.9591 N.ar    1  UNL1       -0.3202
     10 C         138.5770  144.0380  163.3743 C.ar    1  UNL1        0.1201
     11 C         137.7070  144.2253  164.5817 C.3     1  UNL1        0.0718
     12 N         138.9307  145.0945  162.3699 N.ar    1  UNL1       -0.2339
     13 C         139.8184  144.4707  161.3340 C.ar    1  UNL1        0.0919
     14 C         140.0134  143.0287  161.6982 C.ar    1  UNL1        0.0549
     15 C         140.8643  142.1455  160.8347 C.3     1  UNL1        0.0666
     16 C         141.5203  142.7043  159.6069 C.3     1  UNL1        0.1000
     17 N         141.3253  144.1463  159.2427 N.am    1  UNL1       -0.2734
     18 C         141.9813  144.7051  158.0149 C.2     1  UNL1        0.2264
     19 C         142.8322  143.8219  157.1513 C.3     1  UNL1        0.0948
     20 O         141.8937  146.1135  157.5063 O.2     1  UNL1       -0.2748
     21 C         140.4743  145.0295  160.1063 C.3     1  UNL1        0.1405
     22 C         139.2333  141.5322  163.5667 C.3     1  UNL1        0.0741
     23 C         139.9665  142.6832  164.1893 C.3     1  UNL1        0.0414
     24 C         141.2860  142.4546  164.8651 C.3     1  UNL1        0.0955
     25 C         141.3285  141.9206  166.2662 C.ar    1  UNL1       -0.0022
     26 C         140.5754  142.6202  167.3586 C.ar    1  UNL1       -0.0025
     27 C         140.6179  142.0864  168.7597 C.ar    1  UNL1        0.0020
     28 C         141.4135  140.8528  169.0684 C.ar    1  UNL1        0.0296
     29 C         142.1666  140.1532  167.9760 C.ar    1  UNL1        0.1399
     30 F         143.0064  138.9172  168.1070 F       1  UNL1       -0.2042
     31 C         142.1242  140.6871  166.5749 C.ar    1  UNL1        0.0270
     32 C         144.1270  144.4650  162.9581 C.3     1  UNL1        0.0946
     33 C         142.8500  144.1596  163.6834 C.2     1  UNL1        0.2232
     34 O         142.1080  145.4597  163.7791 O.2     1  UNL1       -0.2751
     35 N         142.5630  142.7599  164.1398 N.am    1  UNL1       -0.3021
     36 H         143.2127  142.0416  163.9634 H       1  UNL1        0.1497
@<TRIPOS>BOND
     1    32    33    1
     2    33    34    2
     3    33    35   am
     4    35    24    1
     5    24    23    1
     6    23    22    1
     7    22     1    1
     8     1     2    1
     9     2     3    1
    10     3     4    1
    11     5     4    1
    12     5     6    1
    13     6     7    1
    14     7     9    1
    15     9    10   ar
    16    10    11    1
    17    10    12   ar
    18    12    13   ar
    19    13    14   ar
    20    14    15    1
    21    15    16    1
    22    16    17    1
    23    17    18   am
    24    18    19    1
    25    18    20    2
    26    17    21    1
    27     7     8    1
    28    24    25    1
    29    25    26   ar
    30    26    27   ar
    31    27    28   ar
    32    28    29   ar
    33    29    30    1
    34    29    31   ar
    35     5     1    1
    36    14     9   ar
    37    31    25   ar
    38     8     2    1
    39    21    13    1
    40    35    36    1
@<TRIPOS>MOLECULE
*****
 36 40 0 0 0
SMALL
GASTEIGER

@<TRIPOS>ATOM
      1 N         139.8897  139.0343  165.8654 N.3     1  UNL1       -0.2750
      2 C         139.9955  139.6548  167.2270 C.3     1  UNL1        0.0594
      3 C         138.6571  139.5395  167.8942 C.3     1  UNL1        0.0174
      4 C         137.7240  138.8478  166.9450 C.3     1  UNL1        0.0174
      5 C         138.4858  138.5356  165.6912 C.3     1  UNL1        0.0594
      6 C         139.4837  138.3532  164.5730 C.3     1  UNL1        0.0386
      7 C         140.8438  138.9004  164.8899 C.3     1  UNL1        0.0890
      8 C         141.0997  139.5512  166.2170 C.3     1  UNL1        0.0386
      9 N         141.9480  138.7968  163.8800 N.ar    1  UNL1       -0.3202
     10 C         143.4176  138.7740  164.1795 C.ar    1  UNL1        0.1201
     11 C         144.0410  138.8506  165.5417 C.3     1  UNL1        0.0718
     12 N         144.1542  138.6610  162.8778 N.ar    1  UNL1       -0.2339
     13 C         143.1399  138.6140  161.7737 C.ar    1  UNL1        0.0919
     14 C         141.7764  138.6980  162.3931 C.ar    1  UNL1        0.0549
     15 C         140.5547  138.6736  161.5232 C.3     1  UNL1        0.0666
     16 C         140.6965  138.5652  160.0338 C.3     1  UNL1        0.1000
     17 N         142.0601  138.4813  159.4145 N.am    1  UNL1       -0.2734
     18 C         142.2019  138.3729  157.9251 C.2     1  UNL1        0.2264
     19 C         140.9802  138.3485  157.0551 C.3     1  UNL1        0.0948
     20 O         143.4793  138.2802  157.1443 O.2     1  UNL1       -0.2748
     21 C         143.2818  138.5057  160.2844 C.3     1  UNL1        0.1405
     22 C         140.9939  138.9308  164.8555 C.3     1  UNL1        0.0741
     23 C         141.2255  140.0467  163.8803 C.3     1  UNL1        0.0414
     24 C         141.2098  141.4705  164.3522 C.3     1  UNL1        0.0955
     25 C         139.9457  142.2739  164.2708 C.ar    1  UNL1       -0.0022
     26 C         138.8538  141.8606  163.3290 C.ar    1  UNL1       -0.0025
     27 C         137.5896  142.6638  163.2476 C.ar    1  UNL1        0.0020
     28 C         137.4174  143.8804  164.1080 C.ar    1  UNL1        0.0296
     29 C         138.5093  144.2937  165.0498 C.ar    1  UNL1        0.1399
     30 F         138.5041  145.4738  165.9758 F       1  UNL1       -0.2042
     31 C         139.7734  143.4904  165.1312 C.ar    1  UNL1        0.0270
     32 C         144.8838  142.9564  164.5616 C.3     1  UNL1        0.0946
     33 C         143.6352  142.3360  164.0083 C.2     1  UNL1        0.2232
     34 O         143.9045  142.0926  162.5529 O.2     1  UNL1       -0.2751
     35 N         142.4583  142.0910  164.9055 N.am    1  UNL1       -0.3021
     36 H         142.5054  142.3374  165.8575 H       1  UNL1        0.1497
@<TRIPOS>BOND
     1    32    33    1
     2    33    34    2
     3    33    35   am
     4    35    24    1
     5    24    23    1
     6    23    22    1
     7    22     1    1
     8     1     2    1
     9     2     3    1
    10     3     4    1
    11     5     4    1
    12     5     6    1
    13     6     7    1
    14     7     9    1
    15     9    10   ar
    16    10    11    1
    17    10    12   ar
    18    12    13   ar
    19    13    14   ar
    20    14    15    1
    21    15    16    1
    22    16    17    1
    23    17    18   am
    24    18    19    1
    25    18    20    2
    26    17    21    1
    27     7     8    1
    28    24    25    1
    29    25    26   ar
    30    26    27   ar
    31    27    28   ar
    32    28    29   ar
    33    29    30    1
    34    29    31   ar
    35     5     1    1
    36    14     9   ar
    37    31    25   ar
    38     8     2    1
    39    21    13    1
    40    35    36    1
@<TRIPOS>MOLECULE
*****
 36 40 0 0 0
SMALL
GASTEIGER

@<TRIPOS>ATOM
      1 N         139.8348  141.5318  167.9635 N.3     1  UNL1       -0.2750
      2 C         139.5624  141.0765  169.3666 C.3     1  UNL1        0.0594
      3 C         139.9221  142.1977  170.2958 C.3     1  UNL1        0.0174
      4 C         140.4167  143.3460  169.4671 C.3     1  UNL1        0.0174
      5 C         140.3628  142.9345  168.0257 C.3     1  UNL1        0.0594
      6 C         140.2017  142.2595  166.6848 C.3     1  UNL1        0.0386
      7 C         139.6647  140.8622  166.7793 C.3     1  UNL1        0.0890
      8 C         139.3450  140.2707  168.1202 C.3     1  UNL1        0.0386
      9 N         139.4473  140.0564  165.5330 N.ar    1  UNL1       -0.3202
     10 C         138.6739  138.7748  165.4353 C.ar    1  UNL1        0.1201
     11 C         137.9821  138.0741  166.5669 C.3     1  UNL1        0.0718
     12 N         138.7137  138.3171  164.0075 N.ar    1  UNL1       -0.2339
     13 C         139.5117  139.3157  163.2226 C.ar    1  UNL1        0.0919
     14 C         139.9651  140.3906  164.1654 C.ar    1  UNL1        0.0549
     15 C         140.7909  141.5349  163.6569 C.3     1  UNL1        0.0666
     16 C         141.1633  141.6042  162.2055 C.3     1  UNL1        0.1000
     17 N         140.7099  140.5293  161.2627 N.am    1  UNL1       -0.2734
     18 C         141.0823  140.5987  159.8113 C.2     1  UNL1        0.2264
     19 C         141.9081  141.7430  159.3028 C.3     1  UNL1        0.0948
     20 O         140.7167  139.6171  158.7376 O.2     1  UNL1       -0.2748
     21 C         139.8841  139.3850  161.7713 C.3     1  UNL1        0.1405
     22 C         139.6174  140.7260  166.7172 C.3     1  UNL1        0.0741
     23 C         140.5900  139.6475  166.3422 C.3     1  UNL1        0.0414
     24 C         142.0028  139.7041  166.8432 C.3     1  UNL1        0.0955
     25 C         143.1111  140.1108  165.9177 C.ar    1  UNL1       -0.0022
     26 C         143.9241  139.0638  165.2158 C.ar    1  UNL1       -0.0025
     27 C         145.0324  139.4704  164.2904 C.ar    1  UNL1        0.0020
     28 C         145.3275  140.9240  164.0669 C.ar    1  UNL1        0.0296
     29 C         144.5145  141.9709  164.7689 C.ar    1  UNL1        0.1399
     30 F         144.6722  143.4588  164.6616 F       1  UNL1       -0.2042
     31 C         143.4062  141.5644  165.6943 C.ar    1  UNL1        0.0270
     32 C         143.2318  140.0254  170.6030 C.3     1  UNL1        0.0946
     33 C         142.9273  140.3754  169.1766 C.2     1  UNL1        0.2232
     34 O         143.3625  141.7997  168.9985 O.2     1  UNL1       -0.2751
     35 N         142.3073  139.3541  168.2696 N.am    1  UNL1       -0.3021
     36 H         142.1002  138.4541  168.6106 H       1  UNL1        0.1497
@<TRIPOS>BOND
     1    32    33    1
     2    33    34    2
     3    33    35   am
     4    35    24    1
     5    24    23    1
     6    23    22    1
     7    22     1    1
     8     1     2    1
     9     2     3    1
    10     3     4    1
    11     5     4    1
    12     5     6    1
    13     6     7    1
    14     7     9    1
    15     9    10   ar
    16    10    11    1
    17    10    12   ar
    18    12    13   ar
    19    13    14   ar
    20    14    15    1
    21    15    16    1
    22    16    17    1
    23    17    18   am
    24    18    19    1
    25    18    20    2
    26    17    21    1
    27     7     8    1
    28    24    25    1
    29    25    26   ar
    30    26    27   ar
    31    27    28   ar
    32    28    29   ar
    33    29    30    1
    34    29    31   ar
    35     5     1    1
    36    14     9   ar
    37    31    25   ar
    38     8     2    1
    39    21    13    1
    40    35    36    1
@<TRIPOS>MOLECULE
*****
 36 40 0 0 0
SMALL
GASTEIGER

@<TRIPOS>ATOM
      1 N         142.0867  138.7539  162.2494 N.3     1  UNL1       -0.2750
      2 C         141.7629  138.9208  160.7943 C.3     1  UNL1        0.0594
      3 C         142.9764  138.5340  160.0020 C.3     1  UNL1        0.0174
      4 C         144.0502  138.1279  160.9674 C.3     1  UNL1        0.0174
      5 C         143.5004  138.2638  162.3564 C.3     1  UNL1        0.0594
      6 C         142.6957  138.4924  163.6132 C.3     1  UNL1        0.0386
      7 C         141.3022  138.9814  163.3505 C.3     1  UNL1        0.0890
      8 C         140.8358  139.1956  161.9410 C.3     1  UNL1        0.0386
      9 N         140.3752  139.2562  164.4973 N.ar    1  UNL1       -0.3202
     10 C         138.8798  139.3459  164.4201 C.ar    1  UNL1        0.1201
     11 C         138.0490  139.1765  163.1828 C.3     1  UNL1        0.0718
     12 N         138.3612  139.6347  165.7977 N.ar    1  UNL1       -0.2339
     13 C         139.5360  139.7236  166.7261 C.ar    1  UNL1        0.0919
     14 C         140.7807  139.4896  165.9224 C.ar    1  UNL1        0.0549
     15 C         142.1225  139.5193  166.5921 C.3     1  UNL1        0.0666
     16 C         142.2196  139.7830  168.0655 C.3     1  UNL1        0.1000
     17 N         140.9749  140.0169  168.8693 N.am    1  UNL1       -0.2734
     18 C         141.0721  140.2806  170.3428 C.2     1  UNL1        0.2264
     19 C         142.4139  140.3103  171.0125 C.3     1  UNL1        0.0948
     20 O         139.9379  140.5334  171.2913 O.2     1  UNL1       -0.2748
     21 C         139.6331  139.9872  168.1996 C.3     1  UNL1        0.1405
     22 C         141.1597  139.0287  163.3961 C.3     1  UNL1        0.0741
     23 C         141.2517  140.3278  164.1402 C.3     1  UNL1        0.0414
     24 C         141.3105  141.6224  163.3848 C.3     1  UNL1        0.0955
     25 C         140.1295  142.5472  163.3882 C.ar    1  UNL1       -0.0022
     26 C         139.1676  142.5396  162.2373 C.ar    1  UNL1       -0.0025
     27 C         137.9866  143.4643  162.2407 C.ar    1  UNL1        0.0020
     28 C         137.7675  144.3967  163.3951 C.ar    1  UNL1        0.0296
     29 C         138.7294  144.4043  164.5460 C.ar    1  UNL1        0.1399
     30 F         138.6627  145.2652  165.7726 F       1  UNL1       -0.2042
     31 C         139.9104  143.4796  164.5426 C.ar    1  UNL1        0.0270
     32 C         145.1320  142.2680  162.5309 C.3     1  UNL1        0.0946
     33 C         143.8921  141.8982  163.2898 C.2     1  UNL1        0.2232
     34 O         144.3516  141.4868  164.6570 O.2     1  UNL1       -0.2751
     35 N         142.5503  141.9922  162.6258 N.am    1  UNL1       -0.3021
     36 H         142.4835  142.2966  161.6920 H       1  UNL1        0.1497
@<TRIPOS>BOND
     1    32    33    1
     2    33    34    2
     3    33    35   am
     4    35    24    1
     5    24    23    1
     6    23    22    1
     7    22     1    1
     8     1     2    1
     9     2     3    1
    10     3     4    1
    11     5     4    1
    12     5     6    1
    13     6     7    1
    14     7     9    1
    15     9    10   ar
    16    10    11    1
    17    10    12   ar
    18    12    13   ar
    19    13    14   ar
    20    14    15    1
    21    15    16    1
    22    16    17    1
    23    17    18   am
    24    18    19    1
    25    18    20    2
    26    17    21    1
    27     7     8    1
    28    24    25    1
    29    25    26   ar
    30    26    27   ar
    31    27    28   ar
    32    28    29   ar
    33    29    30    1
    34    29    31   ar
    35     5     1    1
    36    14     9   ar
    37    31    25   ar
    38     8     2    1
    39    21    13    1
    40    35    36    1
@<TRIPOS>MOLECULE
*****
 36 40 0 0 0
SMALL
GASTEIGER

@<TRIPOS>ATOM
      1 N         142.7355  140.5174  167.8056 N.3     1  UNL1       -0.2750
      2 C         142.3214  141.4435  168.9106 C.3     1  UNL1        0.0594
      3 C         142.0366  140.6146  170.1279 C.3     1  UNL1        0.0174
      4 C         142.2746  139.1762  169.7753 C.3     1  UNL1        0.0174
      5 C         142.7066  139.1161  168.3401 C.3     1  UNL1        0.0594
      6 C         143.1106  139.3563  166.9054 C.3     1  UNL1        0.0386
      7 C         143.0929  140.8040  166.5135 C.3     1  UNL1        0.0890
      8 C         142.6983  141.8477  167.5161 C.3     1  UNL1        0.0386
      9 N         143.4698  141.2082  165.1190 N.ar    1  UNL1       -0.3202
     10 C         144.0398  142.5337  164.7088 C.ar    1  UNL1        0.1201
     11 C         144.3330  143.6877  165.6211 C.3     1  UNL1        0.0718
     12 N         144.2651  142.5025  163.2262 N.ar    1  UNL1       -0.2339
     13 C         143.8344  141.1578  162.7200 C.ar    1  UNL1        0.0919
     14 C         143.3428  140.3579  163.8898 C.ar    1  UNL1        0.0549
     15 C         142.8432  138.9585  163.6847 C.3     1  UNL1        0.0666
     16 C         142.8350  138.3591  162.3097 C.3     1  UNL1        0.1000
     17 N         143.3266  139.1591  161.1399 N.am    1  UNL1       -0.2734
     18 C         143.3184  138.5596  159.7649 C.2     1  UNL1        0.2264
     19 C         142.8188  137.1602  159.5597 C.3     1  UNL1        0.0948
     20 O         143.7705  139.2129  158.4926 O.2     1  UNL1       -0.2748
     21 C         143.8262  140.5584  161.3450 C.3     1  UNL1        0.1405
     22 C         143.1124  140.9215  166.4112 C.3     1  UNL1        0.0741
     23 C         142.0947  140.8583  165.3111 C.3     1  UNL1        0.0414
     24 C         140.6792  141.2798  165.5735 C.3     1  UNL1        0.0955
     25 C         140.1522  142.5510  164.9766 C.ar    1  UNL1       -0.0022
     26 C         140.3787  142.8477  163.5239 C.ar    1  UNL1       -0.0025
     27 C         139.8517  144.1189  162.9269 C.ar    1  UNL1        0.0020
     28 C         139.0982  145.0933  163.7828 C.ar    1  UNL1        0.0296
     29 C         138.8716  144.7965  165.2356 C.ar    1  UNL1        0.1399
     30 F         138.1448  145.6534  166.2294 F       1  UNL1       -0.2042
     31 C         139.3986  143.5254  165.8326 C.ar    1  UNL1        0.0270
     32 C         137.8993  138.6631  166.6574 C.3     1  UNL1        0.0946
     33 C         138.7877  139.5130  165.7981 C.2     1  UNL1        0.2232
     34 O         138.4122  139.2010  164.3798 O.2     1  UNL1       -0.2751
     35 N         139.7908  140.4299  166.4328 N.am    1  UNL1       -0.3021
     36 H         139.8661  140.4740  167.4135 H       1  UNL1        0.1497
@<TRIPOS>BOND
     1    32    33    1
     2    33    34    2
     3    33    35   am
     4    35    24    1
     5    24    23    1
     6    23    22    1
     7    22     1    1
     8     1     2    1
     9     2     3    1
    10     3     4    1
    11     5     4    1
    12     5     6    1
    13     6     7    1
    14     7     9    1
    15     9    10   ar
    16    10    11    1
    17    10    12   ar
    18    12    13   ar
    19    13    14   ar
    20    14    15    1
    21    15    16    1
    22    16    17    1
    23    17    18   am
    24    18    19    1
    25    18    20    2
    26    17    21    1
    27     7     8    1
    28    24    25    1
    29    25    26   ar
    30    26    27   ar
    31    27    28   ar
    32    28    29   ar
    33    29    30    1
    34    29    31   ar
    35     5     1    1
    36    14     9   ar
    37    31    25   ar
    38     8     2    1
    39    21    13    1
    40    35    36    1
@<TRIPOS>MOLECULE
*****
 36 40 0 0 0
SMALL
GASTEIGER

@<TRIPOS>ATOM
      1 N         142.3139  138.8162  163.0781 N.3     1  UNL1       -0.2750
      2 C         143.4029  139.7078  162.5591 C.3     1  UNL1        0.0594
      3 C         143.9516  139.0892  161.3077 C.3     1  UNL1        0.0174
      4 C         143.2018  137.8152  161.0531 C.3     1  UNL1        0.0174
      5 C         142.1897  137.6465  162.1472 C.3     1  UNL1        0.0594
      6 C         141.2836  137.7378  163.3514 C.3     1  UNL1        0.0386
      7 C         141.5226  138.9593  164.1885 C.3     1  UNL1        0.0890
      8 C         142.5824  139.9444  163.7923 C.3     1  UNL1        0.0386
      9 N         140.7021  139.1959  165.4217 N.ar    1  UNL1       -0.3202
     10 C         139.3618  138.5911  165.7183 C.ar    1  UNL1        0.1201
     11 C         138.6068  137.6437  164.8339 C.3     1  UNL1        0.0718
     12 N         138.9092  139.1003  167.0547 N.ar    1  UNL1       -0.2339
     13 C         139.9697  140.0197  167.5840 C.ar    1  UNL1        0.0919
     14 C         141.0778  140.0788  166.5747 C.ar    1  UNL1        0.0549
     15 C         142.2857  140.9288  166.8359 C.3     1  UNL1        0.0666
     16 C         142.3855  141.7198  168.1065 C.3     1  UNL1        0.1000
     17 N         141.2774  141.6607  169.1158 N.am    1  UNL1       -0.2734
     18 C         141.3773  142.4518  170.3864 C.2     1  UNL1        0.2264
     19 C         142.5852  143.3018  170.6476 C.3     1  UNL1        0.0948
     20 O         140.3695  142.5086  171.4959 O.2     1  UNL1       -0.2748
     21 C         140.0695  140.8106  168.8545 C.3     1  UNL1        0.1405
     22 C         141.4934  139.0527  164.3112 C.3     1  UNL1        0.0741
     23 C         140.1307  139.6694  164.1985 C.3     1  UNL1        0.0414
     24 C         139.8935  140.7936  163.2341 C.3     1  UNL1        0.0955
     25 C         139.6212  142.1767  163.7468 C.ar    1  UNL1       -0.0022
     26 C         138.2555  142.5330  164.2545 C.ar    1  UNL1       -0.0025
     27 C         137.9831  143.9160  164.7673 C.ar    1  UNL1        0.0020
     28 C         139.0766  144.9429  164.7723 C.ar    1  UNL1        0.0296
     29 C         140.4423  144.5866  164.2646 C.ar    1  UNL1        0.1399
     30 F         141.6429  145.4834  164.1977 F       1  UNL1       -0.2042
     31 C         140.7147  143.2035  163.7519 C.ar    1  UNL1        0.0270
     32 C         138.9424  139.3745  159.6521 C.3     1  UNL1        0.0946
     33 C         138.9073  139.6334  161.1291 C.2     1  UNL1        0.2232
     34 O         137.7443  138.8481  161.6589 O.2     1  UNL1       -0.2751
     35 N         139.9287  140.5347  161.7571 N.am    1  UNL1       -0.3021
     36 H         140.6221  140.9563  161.1998 H       1  UNL1        0.1497
@<TRIPOS>BOND
     1    32    33    1
     2    33    34    2
     3    33    35   am
     4    35    24    1
     5    24    23    1
     6    23    22    1
     7    22     1    1
     8     1     2    1
     9     2     3    1
    10     3     4    1
    11     5     4    1
    12     5     6    1
    13     6     7    1
    14     7     9    1
    15     9    10   ar
    16    10    11    1
    17    10    12   ar
    18    12    13   ar
    19    13    14   ar
    20    14    15    1
    21    15    16    1
    22    16    17    1
    23    17    18   am
    24    18    19    1
    25    18    20    2
    26    17    21    1
    27     7     8    1
    28    24    25    1
    29    25    26   ar
    30    26    27   ar
    31    27    28   ar
    32    28    29   ar
    33    29    30    1
    34    29    31   ar
    35     5     1    1
    36    14     9   ar
    37    31    25   ar
    38     8     2    1
    39    21    13    1
    40    35    36    1
@<TRIPOS>MOLECULE
*****
 36 40 0 0 0
SMALL
GASTEIGER

@<TRIPOS>ATOM
      1 N         139.1858  140.2349  164.5078 N.3     1  UNL1       -0.2750
      2 C         139.8684  138.9421  164.1719 C.3     1  UNL1        0.0594
      3 C         139.3100  137.8765  165.0678 C.3     1  UNL1        0.0174
      4 C         138.2822  138.5107  165.9575 C.3     1  UNL1        0.0174
      5 C         138.2054  139.9682  165.6114 C.3     1  UNL1        0.0594
      6 C         138.3415  141.3670  165.0598 C.3     1  UNL1        0.0386
      7 C         139.3581  141.4811  163.9629 C.3     1  UNL1        0.0890
      8 C         140.1217  140.2686  163.5189 C.3     1  UNL1        0.0386
      9 N         139.6114  142.8075  163.3099 N.ar    1  UNL1       -0.3202
     10 C         139.1916  144.1461  163.8409 C.ar    1  UNL1        0.1201
     11 C         138.4448  144.3933  165.1181 C.3     1  UNL1        0.0718
     12 N         139.6497  145.1941  162.8704 N.ar    1  UNL1       -0.2339
     13 C         140.3526  144.5032  161.7397 C.ar    1  UNL1        0.0919
     14 C         140.3289  143.0282  162.0113 C.ar    1  UNL1        0.0549
     15 C         140.9638  142.0767  161.0410 C.3     1  UNL1        0.0666
     16 C         141.6223  142.6001  159.7991 C.3     1  UNL1        0.1000
     17 N         141.6459  144.0751  159.5275 N.am    1  UNL1       -0.2734
     18 C         142.3045  144.5986  158.2856 C.2     1  UNL1        0.2264
     19 C         142.9394  143.6470  157.3153 C.3     1  UNL1        0.0948
     20 O         142.4190  146.0325  157.8603 O.2     1  UNL1       -0.2748
     21 C         141.0111  145.0267  160.4978 C.3     1  UNL1        0.1405
     22 C         139.4390  141.5613  163.8549 C.3     1  UNL1        0.0741
     23 C         140.4364  142.5113  164.4487 C.3     1  UNL1        0.0414
     24 C         141.5671  141.9869  165.2833 C.3     1  UNL1        0.0955
     25 C         142.9340  141.8358  164.6845 C.ar    1  UNL1       -0.0022
     26 C         143.5627  142.9834  163.9513 C.ar    1  UNL1       -0.0025
     27 C         144.9297  142.8324  163.3525 C.ar    1  UNL1        0.0020
     28 C         145.6680  141.5336  163.4870 C.ar    1  UNL1        0.0296
     29 C         145.0393  140.3860  164.2202 C.ar    1  UNL1        0.1399
     30 F         145.6317  139.0267  164.4474 F       1  UNL1       -0.2042
     31 C         143.6723  140.5370  164.8190 C.ar    1  UNL1        0.0270
     32 C         142.0907  141.6315  169.2011 C.3     1  UNL1        0.0946
     33 C         142.3270  142.0048  167.7677 C.2     1  UNL1        0.2232
     34 O         143.6291  142.7490  167.7436 O.2     1  UNL1       -0.2751
     35 N         141.3307  141.6137  166.7167 N.am    1  UNL1       -0.3021
     36 H         140.5217  141.1119  166.9678 H       1  UNL1        0.1497
@<TRIPOS>BOND
     1    32    33    1
     2    33    34    2
     3    33    35   am
     4    35    24    1
     5    24    23    1
     6    23    22    1
     7    22     1    1
     8     1     2    1
     9     2     3    1
    10     3     4    1
    11     5     4    1
    12     5     6    1
    13     6     7    1
    14     7     9    1
    15     9    10   ar
    16    10    11    1
    17    10    12   ar
    18    12    13   ar
    19    13    14   ar
    20    14    15    1
    21    15    16    1
    22    16    17    1
    23    17    18   am
    24    18    19    1
    25    18    20    2
    26    17    21    1
    27     7     8    1
    28    24    25    1
    29    25    26   ar
    30    26    27   ar
    31    27    28   ar
    32    28    29   ar
    33    29    30    1
    34    29    31   ar
    35     5     1    1
    36    14     9   ar
    37    31    25   ar
    38     8     2    1
    39    21    13    1
    40    35    36    1
