@<TRIPOS>MOLECULE
*****
 32 36 0 0 0
SMALL
GASTEIGER

@<TRIPOS>ATOM
      1 C         142.6714  137.6878  156.8086 C.ar    1  UNL1        0.1028
      2 C         142.8619  138.1442  155.3925 C.ar    1  UNL1        0.0131
      3 C         142.5917  139.5723  155.0219 C.ar    1  UNL1       -0.0015
      4 C         142.1203  140.7938  155.8308 C.ar    1  UNL1        0.0035
      5 C         142.2553  139.5372  156.6385 C.ar    1  UNL1        0.0358
      6 C         142.2106  138.6596  157.8542 C.ar    1  UNL1        0.1545
      7 O         141.9929  138.2949  159.2928 O.3     1  UNL1       -0.4528
      8 C         141.6353  138.4984  160.7353 C.ar    1  UNL1        0.1459
      9 C         141.5756  137.6335  162.0068 C.ar    1  UNL1        0.0489
     10 C         141.1995  137.9311  163.4281 C.ar    1  UNL1        0.0604
     11 CL        141.2456  136.8431  164.4597 Cl      1  UNL1       -0.0822
     12 C         140.7775  139.3168  163.8178 C.ar    1  UNL1        0.0090
     13 C         140.7314  140.4048  162.7863 C.ar    1  UNL1        0.0015
     14 C         141.1924  139.2393  161.9620 C.ar    1  UNL1        0.0349
     15 C         140.3227  141.8173  163.0826 C.3     1  UNL1        0.1203
     16 N         140.0285  143.2619  162.8057 N.am    1  UNL1       -0.2743
     17 C         139.5760  144.5224  163.4813 C.3     1  UNL1        0.0957
     18 C         139.5300  145.6103  162.4498 C.3     1  UNL1        0.0466
     19 C         139.9382  145.3961  160.7822 C.3     1  UNL1        0.1337
     20 N         140.1559  145.7608  159.3436 N.3     1  UNL1       -0.2863
     21 C         140.5135  145.5572  157.9012 C.3     1  UNL1        0.1151
     22 C         140.9564  144.8163  156.6744 C.ar    1  UNL1        0.0739
     23 C         140.8566  146.0110  155.7729 C.ar    1  UNL1        0.1147
     24 N         141.2557  145.5840  154.3915 N.ar    1  UNL1       -0.2226
     25 C         141.6023  144.1253  154.4393 C.ar    1  UNL1        0.1786
     26 N         141.4173  143.6509  155.8502 N.ar    1  UNL1       -0.3070
     27 C         141.8261  142.2384  155.5539 C.3     1  UNL1        0.1341
     28 C         139.8934  144.5186  161.9980 C.2     1  UNL1        0.2402
     29 O         139.6617  144.8798  162.6698 O.2     1  UNL1       -0.2734
     30 H         140.8074  146.5264  159.5165 H       1  UNL1        0.1240
     31 N         143.2119  134.8315  157.5499 N.1     1  UNL1       -0.1907
     32 C         142.9416  136.2596  157.1792 C.1     1  UNL1        0.1035
@<TRIPOS>BOND
     1    31    32    3
     2    32     1    1
     3     1     2   ar
     4     2     3   ar
     5     3     4   ar
     6     4     5   ar
     7     5     6   ar
     8     6     7    1
     9     7     8    1
    10     8     9   ar
    11     9    10   ar
    12    10    11    1
    13    10    12   ar
    14    12    13   ar
    15    13    14   ar
    16    13    15    1
    17    15    16    1
    18    16    17    1
    19    17    18    1
    20    19    18    1
    21    19    20    1
    22    20    21    1
    23    21    22    1
    24    22    23   ar
    25    23    24   ar
    26    24    25   ar
    27    25    26   ar
    28    26    27    1
    29    19    28    1
    30    28    29    2
    31     6     1   ar
    32    14     8   ar
    33    28    16   am
    34    27     4    1
    35    26    22   ar
    36    20    30    1
@<TRIPOS>MOLECULE
*****
 32 36 0 0 0
SMALL
GASTEIGER

@<TRIPOS>ATOM
      1 C         139.7788  144.7255  162.7305 C.ar    1  UNL1        0.1028
      2 C         139.5814  146.0566  162.0680 C.ar    1  UNL1        0.0131
      3 C         139.8670  146.2155  160.6040 C.ar    1  UNL1       -0.0015
      4 C         140.3619  145.2406  159.5209 C.ar    1  UNL1        0.0035
      5 C         140.2177  144.6255  160.8813 C.ar    1  UNL1        0.0358
      6 C         140.2620  143.5531  161.9292 C.ar    1  UNL1        0.1545
      7 O         140.4881  142.1866  162.5048 O.3     1  UNL1       -0.4528
      8 C         140.8616  140.7338  162.5206 C.ar    1  UNL1        0.1459
      9 C         140.9215  139.6045  163.5643 C.ar    1  UNL1        0.0489
     10 C         141.3145  138.1592  163.4842 C.ar    1  UNL1        0.0604
     11 CL        141.2636  137.2988  164.7119 Cl      1  UNL1       -0.0822
     12 C         141.7584  137.5740  162.1763 C.ar    1  UNL1        0.0090
     13 C         141.8093  138.4342  160.9486 C.ar    1  UNL1        0.0015
     14 C         141.3255  139.4163  161.9741 C.ar    1  UNL1        0.0349
     15 C         142.2394  137.9374  159.6001 C.3     1  UNL1        0.1203
     16 N         142.5501  138.0014  158.1341 N.am    1  UNL1       -0.2743
     17 C         143.0254  137.1524  156.9925 C.3     1  UNL1        0.0957
     18 C         143.0763  138.0126  155.7648 C.3     1  UNL1        0.0466
     19 C         142.6500  139.6889  155.7258 C.3     1  UNL1        0.1337
     20 N         142.4239  141.0555  155.1502 N.3     1  UNL1       -0.2863
     21 C         142.0504  142.5082  155.1344 C.3     1  UNL1        0.1151
     22 C         141.5865  143.8258  155.6809 C.ar    1  UNL1        0.0739
     23 C         141.6938  144.5423  154.3674 C.ar    1  UNL1        0.1147
     24 N         141.2764  145.9671  154.5812 N.ar    1  UNL1       -0.2226
     25 C         140.9110  146.1312  156.0268 C.ar    1  UNL1        0.1786
     26 N         141.1026  144.8078  156.7064 N.ar    1  UNL1       -0.3070
     27 C         140.6726  145.3046  158.0549 C.3     1  UNL1        0.1341
     28 C         142.6943  138.6164  156.7735 C.2     1  UNL1        0.2402
     29 O         142.9369  137.9013  156.5182 O.2     1  UNL1       -0.2734
     30 H         141.7842  140.7644  154.4109 H       1  UNL1        0.1240
     31 N         139.2074  144.4076  165.6584 N.1     1  UNL1       -0.1907
     32 C         139.4932  144.5666  164.1945 C.1     1  UNL1        0.1035
@<TRIPOS>BOND
     1    31    32    3
     2    32     1    1
     3     1     2   ar
     4     2     3   ar
     5     3     4   ar
     6     4     5   ar
     7     5     6   ar
     8     6     7    1
     9     7     8    1
    10     8     9   ar
    11     9    10   ar
    12    10    11    1
    13    10    12   ar
    14    12    13   ar
    15    13    14   ar
    16    13    15    1
    17    15    16    1
    18    16    17    1
    19    17    18    1
    20    19    18    1
    21    19    20    1
    22    20    21    1
    23    21    22    1
    24    22    23   ar
    25    23    24   ar
    26    24    25   ar
    27    25    26   ar
    28    26    27    1
    29    19    28    1
    30    28    29    2
    31     6     1   ar
    32    14     8   ar
    33    28    16   am
    34    27     4    1
    35    26    22   ar
    36    20    30    1
@<TRIPOS>MOLECULE
*****
 32 36 0 0 0
SMALL
GASTEIGER

@<TRIPOS>ATOM
      1 C         142.7703  138.6598  156.0770 C.ar    1  UNL1        0.1028
      2 C         142.9492  137.3379  156.7630 C.ar    1  UNL1        0.0131
      3 C         142.6638  137.2094  158.2300 C.ar    1  UNL1       -0.0015
      4 C         142.1855  138.2107  159.2963 C.ar    1  UNL1        0.0035
      5 C         142.3363  138.7992  157.9248 C.ar    1  UNL1        0.0358
      6 C         142.3061  139.8533  156.8580 C.ar    1  UNL1        0.1545
      7 O         142.0993  141.2126  156.2585 O.3     1  UNL1       -0.4528
      8 C         141.7474  142.6702  156.2173 C.ar    1  UNL1        0.1459
      9 C         141.7023  143.7815  155.1537 C.ar    1  UNL1        0.0489
     10 C         141.3310  145.2337  155.2086 C.ar    1  UNL1        0.0604
     11 CL        141.3925  146.0712  153.9656 Cl      1  UNL1       -0.0822
     12 C         140.8982  145.8487  156.5065 C.ar    1  UNL1        0.0090
     13 C         140.8367  145.0113  157.7495 C.ar    1  UNL1        0.0015
     14 C         141.3041  144.0041  156.7409 C.ar    1  UNL1        0.0349
     15 C         140.4166  145.5385  159.0895 C.3     1  UNL1        0.1203
     16 N         140.1075  145.5053  160.5569 N.am    1  UNL1       -0.2743
     17 C         139.6470  146.3815  161.6839 C.3     1  UNL1        0.0957
     18 C         139.5855  145.5442  162.9268 C.3     1  UNL1        0.0466
     19 C         139.9869  143.8627  162.9951 C.3     1  UNL1        0.1337
     20 N         140.1937  142.5033  163.5947 N.3     1  UNL1       -0.2863
     21 C         140.5456  141.0458  163.6358 C.3     1  UNL1        0.1151
     22 C         140.9889  139.7118  163.1123 C.ar    1  UNL1        0.0739
     23 C         140.8733  139.0206  164.4385 C.ar    1  UNL1        0.1147
     24 N         141.2691  137.5862  164.2495 N.ar    1  UNL1       -0.2226
     25 C         141.6294  137.3909  162.8066 C.ar    1  UNL1        0.1786
     26 N         141.4562  138.7047  162.1037 N.ar    1  UNL1       -0.3070
     27 C         141.8764  138.1775  160.7637 C.3     1  UNL1        0.1341
     28 C         139.9566  144.9168  161.9284 C.2     1  UNL1        0.2402
     29 O         139.7251  145.6399  162.1713 O.2     1  UNL1       -0.2734
     30 H         139.2566  142.4064  163.9855 H       1  UNL1        0.1240
     31 N         143.3409  138.9167  153.1431 N.1     1  UNL1       -0.1907
     32 C         143.0557  138.7883  154.6100 C.1     1  UNL1        0.1035
@<TRIPOS>BOND
     1    31    32    3
     2    32     1    1
     3     1     2   ar
     4     2     3   ar
     5     3     4   ar
     6     4     5   ar
     7     5     6   ar
     8     6     7    1
     9     7     8    1
    10     8     9   ar
    11     9    10   ar
    12    10    11    1
    13    10    12   ar
    14    12    13   ar
    15    13    14   ar
    16    13    15    1
    17    15    16    1
    18    16    17    1
    19    17    18    1
    20    19    18    1
    21    19    20    1
    22    20    21    1
    23    21    22    1
    24    22    23   ar
    25    23    24   ar
    26    24    25   ar
    27    25    26   ar
    28    26    27    1
    29    19    28    1
    30    28    29    2
    31     6     1   ar
    32    14     8   ar
    33    28    16   am
    34    27     4    1
    35    26    22   ar
    36    20    30    1
@<TRIPOS>MOLECULE
*****
 32 36 0 0 0
SMALL
GASTEIGER

@<TRIPOS>ATOM
      1 C         142.6451  135.8291  156.6684 C.ar    1  UNL1        0.1028
      2 C         142.1160  135.4919  155.3060 C.ar    1  UNL1        0.0131
      3 C         141.3734  136.5259  154.5127 C.ar    1  UNL1       -0.0015
      4 C         140.9914  137.9895  154.7962 C.ar    1  UNL1        0.0035
      5 C         141.7531  137.3274  155.9059 C.ar    1  UNL1        0.0358
      6 C         142.4317  137.2003  157.2376 C.ar    1  UNL1        0.1545
      7 O         142.9235  137.6277  158.5886 O.3     1  UNL1       -0.4528
      8 C         143.1540  138.5444  159.7535 C.ar    1  UNL1        0.1459
      9 C         143.8391  138.4568  161.1286 C.ar    1  UNL1        0.0489
     10 C         144.0214  139.4432  162.2439 C.ar    1  UNL1        0.0604
     11 CL        144.7556  139.0410  163.4885 Cl      1  UNL1       -0.0822
     12 C         143.4694  140.8320  162.1145 C.ar    1  UNL1        0.0090
     13 C         142.7352  141.2343  160.8700 C.ar    1  UNL1        0.0015
     14 C         143.0878  139.8108  160.5545 C.ar    1  UNL1        0.0349
     15 C         142.1497  142.5980  160.6518 C.3     1  UNL1        0.1203
     16 N         141.4206  143.6943  159.9331 N.am    1  UNL1       -0.2743
     17 C         140.9907  145.1228  160.0898 C.3     1  UNL1        0.0957
     18 C         140.2565  145.5251  158.8453 C.3     1  UNL1        0.0466
     19 C         139.9804  144.4835  157.4917 C.3     1  UNL1        0.1337
     20 N         139.4885  144.0561  156.1406 N.3     1  UNL1       -0.2863
     21 C         139.2581  143.1394  154.9759 C.3     1  UNL1        0.1151
     22 C         139.3242  141.8730  154.1748 C.ar    1  UNL1        0.0739
     23 C         138.5699  142.4337  153.0058 C.ar    1  UNL1        0.1147
     24 N         138.4565  141.3568  151.9678 N.ar    1  UNL1       -0.2226
     25 C         139.1405  140.1305  152.4954 C.ar    1  UNL1        0.1786
     26 N         139.6768  140.4495  153.8594 N.ar    1  UNL1       -0.3070
     27 C         140.2623  139.0858  154.0776 C.3     1  UNL1        0.1341
     28 C         140.6588  144.3564  158.8235 C.2     1  UNL1        0.2402
     29 O         140.6432  145.0118  159.2770 O.2     1  UNL1       -0.2734
     30 H         139.9419  144.8015  155.6123 H       1  UNL1        0.1240
     31 N         144.1303  133.7611  158.2551 N.1     1  UNL1       -0.1907
     32 C         143.3877  134.7950  157.4617 C.1     1  UNL1        0.1035
@<TRIPOS>BOND
     1    31    32    3
     2    32     1    1
     3     1     2   ar
     4     2     3   ar
     5     3     4   ar
     6     4     5   ar
     7     5     6   ar
     8     6     7    1
     9     7     8    1
    10     8     9   ar
    11     9    10   ar
    12    10    11    1
    13    10    12   ar
    14    12    13   ar
    15    13    14   ar
    16    13    15    1
    17    15    16    1
    18    16    17    1
    19    17    18    1
    20    19    18    1
    21    19    20    1
    22    20    21    1
    23    21    22    1
    24    22    23   ar
    25    23    24   ar
    26    24    25   ar
    27    25    26   ar
    28    26    27    1
    29    19    28    1
    30    28    29    2
    31     6     1   ar
    32    14     8   ar
    33    28    16   am
    34    27     4    1
    35    26    22   ar
    36    20    30    1
@<TRIPOS>MOLECULE
*****
 32 36 0 0 0
SMALL
GASTEIGER

@<TRIPOS>ATOM
      1 C         142.2452  138.4103  162.1304 C.ar    1  UNL1        0.1028
      2 C         142.8334  137.2776  161.3425 C.ar    1  UNL1        0.0131
      3 C         143.0596  137.4280  159.8672 C.ar    1  UNL1       -0.0015
      4 C         142.8055  138.5810  158.8801 C.ar    1  UNL1        0.0035
      5 C         142.4150  138.8870  160.2956 C.ar    1  UNL1        0.0358
      6 C         141.8832  139.6936  161.4431 C.ar    1  UNL1        0.1545
      7 O         141.2912  140.8780  162.1476 O.3     1  UNL1       -0.4528
      8 C         140.7289  142.2601  162.3021 C.ar    1  UNL1        0.1459
      9 C         140.1757  143.1218  163.4509 C.ar    1  UNL1        0.0489
     10 C         139.6271  144.5167  163.5090 C.ar    1  UNL1        0.0604
     11 CL        139.1569  145.0839  164.8156 Cl      1  UNL1       -0.0822
     12 C         139.5487  145.3444  162.2605 C.ar    1  UNL1        0.0090
     13 C         140.0188  144.7772  160.9540 C.ar    1  UNL1        0.0015
     14 C         140.2822  143.6293  161.8829 C.ar    1  UNL1        0.0349
     15 C         139.9791  145.5290  159.6566 C.3     1  UNL1        0.1203
     16 N         140.1689  145.7703  158.1883 N.am    1  UNL1       -0.2743
     17 C         139.9699  146.8154  157.1308 C.3     1  UNL1        0.0957
     18 C         140.4401  146.2482  155.8243 C.3     1  UNL1        0.0466
     19 C         141.0912  144.6577  155.6253 C.3     1  UNL1        0.1337
     20 N         141.6833  143.4732  154.9207 N.3     1  UNL1       -0.2863
     21 C         142.2455  142.0912  154.7663 C.3     1  UNL1        0.1151
     22 C         142.6923  140.7219  155.1855 C.ar    1  UNL1        0.0739
     23 C         143.1166  140.3095  153.8071 C.ar    1  UNL1        0.1147
     24 N         143.6422  138.9068  153.8843 N.ar    1  UNL1       -0.2226
     25 C         143.5427  138.4522  155.3103 C.ar    1  UNL1        0.1786
     26 N         142.9556  139.5741  156.1145 N.ar    1  UNL1       -0.3070
     27 C         142.9953  138.8223  157.4119 C.3     1  UNL1        0.1341
     28 C         140.5594  145.4644  156.7727 C.2     1  UNL1        0.2402
     29 O         140.3123  146.1990  156.5863 O.2     1  UNL1       -0.2734
     30 H         142.4782  143.9667  154.5145 H       1  UNL1        0.1240
     31 N         141.7928  138.1097  165.0808 N.1     1  UNL1       -0.1907
     32 C         142.0190  138.2600  163.6056 C.1     1  UNL1        0.1035
@<TRIPOS>BOND
     1    31    32    3
     2    32     1    1
     3     1     2   ar
     4     2     3   ar
     5     3     4   ar
     6     4     5   ar
     7     5     6   ar
     8     6     7    1
     9     7     8    1
    10     8     9   ar
    11     9    10   ar
    12    10    11    1
    13    10    12   ar
    14    12    13   ar
    15    13    14   ar
    16    13    15    1
    17    15    16    1
    18    16    17    1
    19    17    18    1
    20    19    18    1
    21    19    20    1
    22    20    21    1
    23    21    22    1
    24    22    23   ar
    25    23    24   ar
    26    24    25   ar
    27    25    26   ar
    28    26    27    1
    29    19    28    1
    30    28    29    2
    31     6     1   ar
    32    14     8   ar
    33    28    16   am
    34    27     4    1
    35    26    22   ar
    36    20    30    1
@<TRIPOS>MOLECULE
*****
 32 36 0 0 0
SMALL
GASTEIGER

@<TRIPOS>ATOM
      1 C         143.2514  141.8807  160.5563 C.ar    1  UNL1        0.1028
      2 C         143.9199  140.6252  161.0325 C.ar    1  UNL1        0.0131
      3 C         143.7609  139.3506  160.2579 C.ar    1  UNL1       -0.0015
      4 C         143.0007  138.9963  158.9675 C.ar    1  UNL1        0.0035
      5 C         142.8737  140.4326  159.3805 C.ar    1  UNL1        0.0358
      6 C         142.4238  141.8616  159.3055 C.ar    1  UNL1        0.1545
      7 O         141.7194  143.0655  158.7539 O.3     1  UNL1       -0.4528
      8 C         140.8678  143.8613  157.8095 C.ar    1  UNL1        0.1459
      9 C         140.3837  145.3175  157.6947 C.ar    1  UNL1        0.0489
     10 C         139.5199  146.0314  156.6976 C.ar    1  UNL1        0.0604
     11 CL        139.2257  147.4922  156.8699 Cl      1  UNL1       -0.0822
     12 C         138.9501  145.2845  155.5282 C.ar    1  UNL1        0.0090
     13 C         139.2442  143.8238  155.3559 C.ar    1  UNL1        0.0015
     14 C         139.9987  144.1274  156.6163 C.ar    1  UNL1        0.0349
     15 C         138.7195  142.9963  154.2201 C.3     1  UNL1        0.1203
     16 N         138.5042  141.7711  153.3819 N.am    1  UNL1       -0.2743
     17 C         137.8079  141.3015  152.1391 C.3     1  UNL1        0.0957
     18 C         138.1020  139.8408  151.9668 C.3     1  UNL1        0.0466
     19 C         139.0811  138.9057  153.0439 C.3     1  UNL1        0.1337
     20 N         139.7855  137.7018  153.5956 N.3     1  UNL1       -0.2863
     21 C         140.6371  136.9061  154.5399 C.3     1  UNL1        0.1151
     22 C         141.5063  136.6399  155.7331 C.ar    1  UNL1        0.0739
     23 C         141.7010  135.1870  155.4150 C.ar    1  UNL1        0.1147
     24 N         142.5758  134.5928  156.4788 N.ar    1  UNL1       -0.2226
     25 C         142.9217  135.6784  157.4544 C.ar    1  UNL1        0.1786
     26 N         142.2606  136.9436  156.9936 N.ar    1  UNL1       -0.3070
     27 C         142.7854  137.7711  158.1293 C.3     1  UNL1        0.1341
     28 C         138.6312  140.3347  152.9689 C.2     1  UNL1        0.2402
     29 O         138.1666  140.5127  152.3461 O.2     1  UNL1       -0.2734
     30 H         140.3125  137.4799  152.7510 H       1  UNL1        0.1240
     31 N         143.5696  144.4299  162.1056 N.1     1  UNL1       -0.1907
     32 C         143.4105  143.1553  161.3309 C.1     1  UNL1        0.1035
@<TRIPOS>BOND
     1    31    32    3
     2    32     1    1
     3     1     2   ar
     4     2     3   ar
     5     3     4   ar
     6     4     5   ar
     7     5     6   ar
     8     6     7    1
     9     7     8    1
    10     8     9   ar
    11     9    10   ar
    12    10    11    1
    13    10    12   ar
    14    12    13   ar
    15    13    14   ar
    16    13    15    1
    17    15    16    1
    18    16    17    1
    19    17    18    1
    20    19    18    1
    21    19    20    1
    22    20    21    1
    23    21    22    1
    24    22    23   ar
    25    23    24   ar
    26    24    25   ar
    27    25    26   ar
    28    26    27    1
    29    19    28    1
    30    28    29    2
    31     6     1   ar
    32    14     8   ar
    33    28    16   am
    34    27     4    1
    35    26    22   ar
    36    20    30    1
@<TRIPOS>MOLECULE
*****
 32 36 0 0 0
SMALL
GASTEIGER

@<TRIPOS>ATOM
      1 C         146.5976  142.4665  157.4635 C.ar    1  UNL1        0.1028
      2 C         146.8056  141.8598  156.1076 C.ar    1  UNL1        0.0131
      3 C         145.8097  140.8784  155.5642 C.ar    1  UNL1       -0.0015
      4 C         144.5015  140.2934  156.1252 C.ar    1  UNL1        0.0035
      5 C         145.1825  141.2657  157.0421 C.ar    1  UNL1        0.0358
      6 C         145.3938  142.0919  158.2762 C.ar    1  UNL1        0.1545
      7 O         145.1032  142.6461  159.6393 O.3     1  UNL1       -0.4528
      8 C         144.3550  142.8440  160.9243 C.ar    1  UNL1        0.1459
      9 C         144.5335  143.6748  162.2074 C.ar    1  UNL1        0.0489
     10 C         143.7184  143.8088  163.4594 C.ar    1  UNL1        0.0604
     11 CL        144.1733  144.7257  164.5560 Cl      1  UNL1       -0.0822
     12 C         142.4484  143.0260  163.6149 C.ar    1  UNL1        0.0090
     13 C         141.9935  142.1092  162.5184 C.ar    1  UNL1        0.0015
     14 C         143.2630  142.6554  161.9352 C.ar    1  UNL1        0.0349
     15 C         140.7398  141.2883  162.5848 C.3     1  UNL1        0.1203
     16 N         139.6927  140.3178  162.1246 N.am    1  UNL1       -0.2743
     17 C         138.4072  139.6782  162.5585 C.3     1  UNL1        0.0957
     18 C         137.9523  138.7614  161.4620 C.3     1  UNL1        0.0466
     19 C         138.8004  138.5194  159.9736 C.3     1  UNL1        0.1337
     20 N         139.0910  137.9651  158.6103 N.3     1  UNL1       -0.2863
     21 C         139.8392  137.7673  157.3254 C.3     1  UNL1        0.1151
     22 C         140.9312  137.9558  156.3144 C.ar    1  UNL1        0.0739
     23 C         140.3379  137.0013  155.3210 C.ar    1  UNL1        0.1147
     24 N         141.2408  136.9577  154.1240 N.ar    1  UNL1       -0.2226
     25 C         142.3920  137.8852  154.3775 C.ar    1  UNL1        0.1786
     26 N         142.2007  138.5021  155.7314 N.ar    1  UNL1       -0.3070
     27 C         143.4544  139.3230  155.6649 C.3     1  UNL1        0.1341
     28 C         139.0117  139.3455  161.2076 C.2     1  UNL1        0.2402
     29 O         138.4494  139.2702  161.7676 O.2     1  UNL1       -0.2734
     30 H         138.2027  138.2321  158.1860 H       1  UNL1        0.1240
     31 N         148.5894  144.4291  158.5503 N.1     1  UNL1       -0.1907
     32 C         147.5935  143.4478  158.0069 C.1     1  UNL1        0.1035
@<TRIPOS>BOND
     1    31    32    3
     2    32     1    1
     3     1     2   ar
     4     2     3   ar
     5     3     4   ar
     6     4     5   ar
     7     5     6   ar
     8     6     7    1
     9     7     8    1
    10     8     9   ar
    11     9    10   ar
    12    10    11    1
    13    10    12   ar
    14    12    13   ar
    15    13    14   ar
    16    13    15    1
    17    15    16    1
    18    16    17    1
    19    17    18    1
    20    19    18    1
    21    19    20    1
    22    20    21    1
    23    21    22    1
    24    22    23   ar
    25    23    24   ar
    26    24    25   ar
    27    25    26   ar
    28    26    27    1
    29    19    28    1
    30    28    29    2
    31     6     1   ar
    32    14     8   ar
    33    28    16   am
    34    27     4    1
    35    26    22   ar
    36    20    30    1
@<TRIPOS>MOLECULE
*****
 32 36 0 0 0
SMALL
GASTEIGER

@<TRIPOS>ATOM
      1 C         140.6389  145.5874  154.9473 C.ar    1  UNL1        0.1028
      2 C         140.1383  146.7571  155.7416 C.ar    1  UNL1        0.0131
      3 C         140.0055  146.6502  157.2319 C.ar    1  UNL1       -0.0015
      4 C         140.2895  145.5142  158.2306 C.ar    1  UNL1        0.0035
      5 C         140.5764  145.1614  156.8012 C.ar    1  UNL1        0.0358
      6 C         141.0068  144.3106  155.6432 C.ar    1  UNL1        0.1545
      7 O         141.5152  143.0911  154.9332 O.3     1  UNL1       -0.4528
      8 C         142.0243  141.6885  154.7790 C.ar    1  UNL1        0.1459
      9 C         142.4744  140.7818  153.6198 C.ar    1  UNL1        0.0489
     10 C         142.9758  139.3693  153.5630 C.ar    1  UNL1        0.0604
     11 CL        143.3415  138.7556  152.2440 Cl      1  UNL1       -0.0822
     12 C         143.1116  138.5703  154.8253 C.ar    1  UNL1        0.0090
     13 C         142.7460  139.1839  156.1442 C.ar    1  UNL1        0.0015
     14 C         142.4564  140.3165  155.2043 C.ar    1  UNL1        0.0349
     15 C         142.8487  138.4631  157.4557 C.3     1  UNL1        0.1203
     16 N         142.7490  138.2639  158.9391 N.am    1  UNL1       -0.2743
     17 C         142.9859  137.2392  160.0086 C.3     1  UNL1        0.0957
     18 C         142.6203  137.8528  161.3276 C.3     1  UNL1        0.0466
     19 C         142.0318  139.4676  161.5264 C.3     1  UNL1        0.1337
     20 N         141.5233  140.6871  162.2365 N.3     1  UNL1       -0.2863
     21 C         141.0143  142.0897  162.3906 C.3     1  UNL1        0.1151
     22 C         140.5821  143.4617  161.9654 C.ar    1  UNL1        0.0739
     23 C         140.2622  143.9209  163.3570 C.ar    1  UNL1        0.1147
     24 N         139.7750  145.3373  163.2772 N.ar    1  UNL1       -0.2226
     25 C         139.7938  145.7535  161.8362 C.ar    1  UNL1        0.1786
     26 N         140.2926  144.5943  161.0254 N.ar    1  UNL1       -0.3070
     27 C         140.1898  145.3150  159.7139 C.3     1  UNL1        0.1341
     28 C         142.4622  138.6166  160.3686 C.2     1  UNL1        0.2402
     29 O         142.6989  137.8794  160.5578 O.2     1  UNL1       -0.2734
     30 H         142.3054  140.7768  162.8851 H       1  UNL1        0.1240
     31 N         140.9043  145.8013  151.9668 N.1     1  UNL1       -0.1907
     32 C         140.7716  145.6944  153.4570 C.1     1  UNL1        0.1035
@<TRIPOS>BOND
     1    31    32    3
     2    32     1    1
     3     1     2   ar
     4     2     3   ar
     5     3     4   ar
     6     4     5   ar
     7     5     6   ar
     8     6     7    1
     9     7     8    1
    10     8     9   ar
    11     9    10   ar
    12    10    11    1
    13    10    12   ar
    14    12    13   ar
    15    13    14   ar
    16    13    15    1
    17    15    16    1
    18    16    17    1
    19    17    18    1
    20    19    18    1
    21    19    20    1
    22    20    21    1
    23    21    22    1
    24    22    23   ar
    25    23    24   ar
    26    24    25   ar
    27    25    26   ar
    28    26    27    1
    29    19    28    1
    30    28    29    2
    31     6     1   ar
    32    14     8   ar
    33    28    16   am
    34    27     4    1
    35    26    22   ar
    36    20    30    1
@<TRIPOS>MOLECULE
*****
 32 36 0 0 0
SMALL
GASTEIGER

@<TRIPOS>ATOM
      1 C         141.9345  143.3294  154.6426 C.ar    1  UNL1        0.1028
      2 C         141.5107  144.7599  154.7966 C.ar    1  UNL1        0.0131
      3 C         141.0597  145.2688  156.1336 C.ar    1  UNL1       -0.0015
      4 C         140.9167  144.6040  157.5142 C.ar    1  UNL1        0.0035
      5 C         141.4173  143.6856  156.4392 C.ar    1  UNL1        0.0358
      6 C         141.9075  142.4075  155.8256 C.ar    1  UNL1        0.1545
      7 O         142.3124  140.9645  155.7671 O.3     1  UNL1       -0.4528
      8 C         142.5705  139.5759  156.2725 C.ar    1  UNL1        0.1459
      9 C         143.0694  138.2447  155.6832 C.ar    1  UNL1        0.0489
     10 C         143.2985  136.8865  156.2773 C.ar    1  UNL1        0.0604
     11 CL        143.8036  135.7668  155.4164 Cl      1  UNL1       -0.0822
     12 C         143.0225  136.6481  157.7323 C.ar    1  UNL1        0.0090
     13 C         142.5174  137.7678  158.5931 C.ar    1  UNL1        0.0015
     14 C         142.6425  138.4535  157.2648 C.ar    1  UNL1        0.0349
     15 C         142.2143  137.6234  160.0551 C.3     1  UNL1        0.1203
     16 N         141.7792  138.0424  161.4281 N.am    1  UNL1       -0.2743
     17 C         141.5974  137.5117  162.8193 C.3     1  UNL1        0.0957
     18 C         141.0923  138.6314  163.6801 C.3     1  UNL1        0.0466
     19 C         140.7884  140.2388  163.1168 C.3     1  UNL1        0.1337
     20 N         140.3835  141.6819  163.1753 N.3     1  UNL1       -0.2863
     21 C         140.1254  143.0704  162.6699 C.3     1  UNL1        0.1151
     22 C         140.0534  144.1930  161.6775 C.ar    1  UNL1        0.0739
     23 C         139.5486  145.1965  162.6715 C.ar    1  UNL1        0.1147
     24 N         139.3617  146.5024  161.9575 N.ar    1  UNL1       -0.2226
     25 C         139.7510  146.3059  160.5222 C.ar    1  UNL1        0.1786
     26 N         140.1785  144.8785  160.3492 N.ar    1  UNL1       -0.3070
     27 C         140.4816  145.0229  158.8872 C.3     1  UNL1        0.1341
     28 C         141.2785  138.9607  162.5033 C.2     1  UNL1        0.2402
     29 O         141.3295  138.3415  163.0026 O.2     1  UNL1       -0.2734
     30 H         141.0198  141.9494  163.9262 H       1  UNL1        0.1240
     31 N         142.8366  142.3116  151.9685 N.1     1  UNL1       -0.1907
     32 C         142.3855  142.8205  153.3055 C.1     1  UNL1        0.1035
@<TRIPOS>BOND
     1    31    32    3
     2    32     1    1
     3     1     2   ar
     4     2     3   ar
     5     3     4   ar
     6     4     5   ar
     7     5     6   ar
     8     6     7    1
     9     7     8    1
    10     8     9   ar
    11     9    10   ar
    12    10    11    1
    13    10    12   ar
    14    12    13   ar
    15    13    14   ar
    16    13    15    1
    17    15    16    1
    18    16    17    1
    19    17    18    1
    20    19    18    1
    21    19    20    1
    22    20    21    1
    23    21    22    1
    24    22    23   ar
    25    23    24   ar
    26    24    25   ar
    27    25    26   ar
    28    26    27    1
    29    19    28    1
    30    28    29    2
    31     6     1   ar
    32    14     8   ar
    33    28    16   am
    34    27     4    1
    35    26    22   ar
    36    20    30    1
