@<TRIPOS>MOLECULE
*****
 23 25 0 0 0
SMALL
GASTEIGER

@<TRIPOS>ATOM
      1 C         140.4910  141.8311  167.3476 C.3     1  UNL1        0.1535
      2 C         139.9537  140.4888  167.7471 C.3     1  UNL1        0.1823
      3 C         139.4790  140.2586  169.1513 C.3     1  UNL1        0.0602
      4 C         139.6082  141.4743  170.0372 C.3     1  UNL1        0.0612
      5 C         139.8482  142.8125  170.6709 C.3     1  UNL1        0.0175
      6 C         140.4325  143.7203  169.6296 C.3     1  UNL1        0.0180
      7 C         140.5535  142.9432  168.3522 C.3     1  UNL1        0.0716
      8 N         140.0441  141.5551  168.6042 N.3     1  UNL1       -0.2733
      9 C         139.9367  140.8649  168.2200 C.3     1  UNL1        0.0896
     10 C         140.9657  142.0613  165.9435 C.2     1  UNL1        0.3214
     11 O         142.3572  141.6649  165.5477 O.2     1  UNL1       -0.2499
     12 O         140.0489  142.6880  164.9350 O.3     1  UNL1       -0.4484
     13 C         138.6551  144.8372  165.3688 C.3     1  UNL1        0.0513
     14 C         139.9094  144.1802  164.8735 C.3     1  UNL1        0.2086
     15 O         139.8911  139.3768  166.7425 O.3     1  UNL1       -0.4485
     16 C         138.5878  139.0332  166.0841 C.2     1  UNL1        0.3411
     17 O         137.4074  138.6353  166.9199 O.2     1  UNL1       -0.2449
     18 C         138.4648  139.0875  164.5902 C.ar    1  UNL1        0.0756
     19 C         138.8702  137.9051  163.7608 C.ar    1  UNL1        0.0064
     20 C         138.7472  137.9594  162.2669 C.ar    1  UNL1        0.0002
     21 C         138.2188  139.1960  161.6023 C.ar    1  UNL1        0.0000
     22 C         137.8135  140.3783  162.4316 C.ar    1  UNL1        0.0002
     23 C         137.9365  140.3240  163.9256 C.ar    1  UNL1        0.0064
@<TRIPOS>BOND
     1    13    14    1
     2    14    12    1
     3    12    10    1
     4    10    11    2
     5    10     1    1
     6     1     2    1
     7     2    15    1
     8    15    16    1
     9    16    17    2
    10    16    18    1
    11    18    19   ar
    12    19    20   ar
    13    20    21   ar
    14    21    22   ar
    15    22    23   ar
    16     2     3    1
    17     3     4    1
    18     4     5    1
    19     5     6    1
    20     6     7    1
    21     7     8    1
    22     8     9    1
    23     7     1    1
    24    23    18   ar
    25     8     4    1
@<TRIPOS>MOLECULE
*****
 23 25 0 0 0
SMALL
GASTEIGER

@<TRIPOS>ATOM
      1 C         140.4635  141.7796  167.3592 C.3     1  UNL1        0.1535
      2 C         139.9342  140.4422  167.7852 C.3     1  UNL1        0.1823
      3 C         139.4815  140.2306  169.1994 C.3     1  UNL1        0.0602
      4 C         139.6226  141.4584  170.0666 C.3     1  UNL1        0.0612
      5 C         139.8705  142.8054  170.6783 C.3     1  UNL1        0.0175
      6 C         140.4374  143.6996  169.6158 C.3     1  UNL1        0.0180
      7 C         140.5399  142.9053  168.3475 C.3     1  UNL1        0.0716
      8 N         140.0363  141.5202  168.6261 N.3     1  UNL1       -0.2733
      9 C         139.9240  140.8246  168.2531 C.3     1  UNL1        0.0896
     10 C         140.9162  141.9911  165.9449 C.2     1  UNL1        0.3214
     11 O         140.0434  142.7403  164.9821 O.2     1  UNL1       -0.2499
     12 O         142.2418  141.4535  165.4934 O.3     1  UNL1       -0.4484
     13 C         141.7292  140.2453  163.2512 C.3     1  UNL1        0.0513
     14 C         142.3000  140.2225  164.6382 C.3     1  UNL1        0.2086
     15 O         139.8578  139.3165  166.7968 O.3     1  UNL1       -0.4485
     16 C         138.5575  139.0005  166.1191 C.2     1  UNL1        0.3411
     17 O         137.3591  138.6188  166.9366 O.2     1  UNL1       -0.2449
     18 C         138.4555  139.0661  164.6240 C.ar    1  UNL1        0.0756
     19 C         137.9502  140.3130  163.9607 C.ar    1  UNL1        0.0064
     20 C         137.8483  140.3786  162.4656 C.ar    1  UNL1        0.0002
     21 C         138.2516  139.1973  161.6338 C.ar    1  UNL1        0.0000
     22 C         138.7569  137.9504  162.2971 C.ar    1  UNL1        0.0002
     23 C         138.8589  137.8848  163.7922 C.ar    1  UNL1        0.0064
@<TRIPOS>BOND
     1    13    14    1
     2    14    12    1
     3    12    10    1
     4    10    11    2
     5    10     1    1
     6     1     2    1
     7     2    15    1
     8    15    16    1
     9    16    17    2
    10    16    18    1
    11    18    19   ar
    12    19    20   ar
    13    20    21   ar
    14    21    22   ar
    15    22    23   ar
    16     2     3    1
    17     3     4    1
    18     4     5    1
    19     5     6    1
    20     6     7    1
    21     7     8    1
    22     8     9    1
    23     7     1    1
    24    23    18   ar
    25     8     4    1
@<TRIPOS>MOLECULE
*****
 23 25 0 0 0
SMALL
GASTEIGER

@<TRIPOS>ATOM
      1 C         140.7097  143.7825  162.4760 C.3     1  UNL1        0.1535
      2 C         140.8290  142.2877  162.4391 C.3     1  UNL1        0.1823
      3 C         141.9864  141.6109  163.1117 C.3     1  UNL1        0.0602
      4 C         142.9404  142.5719  163.7792 C.3     1  UNL1        0.0612
      5 C         143.7000  143.7372  164.3405 C.3     1  UNL1        0.0175
      6 C         142.9629  144.9910  163.9734 C.3     1  UNL1        0.0180
      7 C         141.7478  144.6005  163.1853 C.3     1  UNL1        0.0716
      8 N         141.7339  143.1054  163.0653 N.3     1  UNL1       -0.2733
      9 C         141.2934  142.5224  162.7467 C.3     1  UNL1        0.0896
     10 C         139.5523  144.4594  161.8034 C.2     1  UNL1        0.3214
     11 O         139.5559  144.6492  160.3155 O.2     1  UNL1       -0.2499
     12 O         138.3912  144.9463  162.6188 O.3     1  UNL1       -0.4484
     13 C         138.6845  144.8911  165.1997 C.3     1  UNL1        0.0513
     14 C         138.0913  144.3173  163.9471 C.3     1  UNL1        0.2086
     15 O         139.7909  141.4698  161.7298 O.3     1  UNL1       -0.4485
     16 C         138.5339  141.0702  162.4441 C.2     1  UNL1        0.3411
     17 O         137.2255  141.7011  162.0696 O.2     1  UNL1       -0.2449
     18 C         138.5851  140.0397  163.5330 C.ar    1  UNL1        0.0756
     19 C         139.0357  138.6429  163.2231 C.ar    1  UNL1        0.0064
     20 C         139.0869  137.6125  164.3119 C.ar    1  UNL1        0.0002
     21 C         138.6876  137.9788  165.7106 C.ar    1  UNL1        0.0000
     22 C         138.2371  139.3756  166.0204 C.ar    1  UNL1        0.0002
     23 C         138.1858  140.4061  164.9316 C.ar    1  UNL1        0.0064
@<TRIPOS>BOND
     1    13    14    1
     2    14    12    1
     3    12    10    1
     4    10    11    2
     5    10     1    1
     6     1     2    1
     7     2    15    1
     8    15    16    1
     9    16    17    2
    10    16    18    1
    11    18    19   ar
    12    19    20   ar
    13    20    21   ar
    14    21    22   ar
    15    22    23   ar
    16     2     3    1
    17     3     4    1
    18     4     5    1
    19     5     6    1
    20     6     7    1
    21     7     8    1
    22     8     9    1
    23     7     1    1
    24    23    18   ar
    25     8     4    1
@<TRIPOS>MOLECULE
*****
 23 25 0 0 0
SMALL
GASTEIGER

@<TRIPOS>ATOM
      1 C         138.6626  140.1666  165.2037 C.3     1  UNL1        0.1535
      2 C         139.8159  140.8620  165.8643 C.3     1  UNL1        0.1823
      3 C         140.1243  142.2903  165.5254 C.3     1  UNL1        0.0602
      4 C         139.1831  142.8834  164.5048 C.3     1  UNL1        0.0612
      5 C         138.1188  143.2016  163.4968 C.3     1  UNL1        0.0175
      6 C         137.2750  141.9755  163.3110 C.3     1  UNL1        0.0180
      7 C         137.8177  140.8995  164.2042 C.3     1  UNL1        0.0716
      8 N         138.9970  141.4606  164.9420 N.3     1  UNL1       -0.2733
      9 C         139.5412  141.2403  165.4813 C.3     1  UNL1        0.0896
     10 C         138.3542  138.7383  165.5425 C.2     1  UNL1        0.3214
     11 O         137.3946  138.4208  166.6508 O.2     1  UNL1       -0.2499
     12 O         139.0055  137.6274  164.7731 O.3     1  UNL1       -0.4484
     13 C         138.3415  137.9126  162.2776 C.3     1  UNL1        0.0513
     14 C         139.3973  137.8368  163.3403 C.3     1  UNL1        0.2086
     15 O         140.6607  140.1290  166.8637 O.3     1  UNL1       -0.4485
     16 C         140.4645  140.3691  168.3313 C.2     1  UNL1        0.3411
     17 O         139.3812  139.6421  169.0719 O.2     1  UNL1       -0.2449
     18 C         141.3513  141.3360  169.0584 C.ar    1  UNL1        0.0756
     19 C         140.7845  142.6183  169.5919 C.ar    1  UNL1        0.0064
     20 C         141.6713  143.5852  170.3189 C.ar    1  UNL1        0.0002
     21 C         143.1249  143.2698  170.5126 C.ar    1  UNL1        0.0000
     22 C         143.6917  141.9875  169.9791 C.ar    1  UNL1        0.0002
     23 C         142.8049  141.0206  169.2520 C.ar    1  UNL1        0.0064
@<TRIPOS>BOND
     1    13    14    1
     2    14    12    1
     3    12    10    1
     4    10    11    2
     5    10     1    1
     6     1     2    1
     7     2    15    1
     8    15    16    1
     9    16    17    2
    10    16    18    1
    11    18    19   ar
    12    19    20   ar
    13    20    21   ar
    14    21    22   ar
    15    22    23   ar
    16     2     3    1
    17     3     4    1
    18     4     5    1
    19     5     6    1
    20     6     7    1
    21     7     8    1
    22     8     9    1
    23     7     1    1
    24    23    18   ar
    25     8     4    1
@<TRIPOS>MOLECULE
*****
 23 25 0 0 0
SMALL
GASTEIGER

@<TRIPOS>ATOM
      1 C         141.6300  142.4800  165.6492 C.3     1  UNL1        0.1535
      2 C         140.4451  143.2177  165.0998 C.3     1  UNL1        0.1823
      3 C         140.6492  144.4031  164.2037 C.3     1  UNL1        0.0602
      4 C         142.1029  144.7243  163.9522 C.3     1  UNL1        0.0612
      5 C         143.5988  144.8070  163.8803 C.3     1  UNL1        0.0175
      6 C         144.1651  143.6967  164.7149 C.3     1  UNL1        0.0180
      7 C         143.0190  142.9277  165.3025 C.3     1  UNL1        0.0716
      8 N         141.7445  143.5628  164.8311 N.3     1  UNL1       -0.2733
      9 C         140.9554  143.4747  164.9026 C.3     1  UNL1        0.0896
     10 C         141.4259  141.2945  166.5453 C.2     1  UNL1        0.3214
     11 O         141.6718  139.9095  166.0245 O.2     1  UNL1       -0.2499
     12 O         140.9760  141.4941  167.9623 O.3     1  UNL1       -0.4484
     13 C         139.2461  140.4322  169.5840 C.3     1  UNL1        0.0513
     14 C         140.5016  140.3228  168.7706 C.3     1  UNL1        0.2086
     15 O         139.0562  142.7699  165.4465 O.3     1  UNL1       -0.4485
     16 C         138.3270  141.8199  164.5433 C.2     1  UNL1        0.3411
     17 O         137.4412  142.3504  163.4551 O.2     1  UNL1       -0.2449
     18 C         138.4836  140.3396  164.7282 C.ar    1  UNL1        0.0756
     19 C         138.0758  139.6980  166.0212 C.ar    1  UNL1        0.0064
     20 C         138.2323  138.2176  166.2061 C.ar    1  UNL1        0.0002
     21 C         138.7966  137.3790  165.0979 C.ar    1  UNL1        0.0000
     22 C         139.2044  138.0207  163.8048 C.ar    1  UNL1        0.0002
     23 C         139.0479  139.5010  163.6199 C.ar    1  UNL1        0.0064
@<TRIPOS>BOND
     1    13    14    1
     2    14    12    1
     3    12    10    1
     4    10    11    2
     5    10     1    1
     6     1     2    1
     7     2    15    1
     8    15    16    1
     9    16    17    2
    10    16    18    1
    11    18    19   ar
    12    19    20   ar
    13    20    21   ar
    14    21    22   ar
    15    22    23   ar
    16     2     3    1
    17     3     4    1
    18     4     5    1
    19     5     6    1
    20     6     7    1
    21     7     8    1
    22     8     9    1
    23     7     1    1
    24    23    18   ar
    25     8     4    1
@<TRIPOS>MOLECULE
*****
 23 25 0 0 0
SMALL
GASTEIGER

@<TRIPOS>ATOM
      1 C         140.3986  142.2328  166.1726 C.3     1  UNL1        0.1535
      2 C         139.7006  140.9694  165.7642 C.3     1  UNL1        0.1823
      3 C         138.4409  141.0373  164.9527 C.3     1  UNL1        0.0602
      4 C         138.0082  142.4472  164.6298 C.3     1  UNL1        0.0612
      5 C         137.8232  143.9265  164.4640 C.3     1  UNL1        0.0175
      6 C         138.9535  144.6167  165.1683 C.3     1  UNL1        0.0180
      7 C         139.8370  143.5640  165.7694 C.3     1  UNL1        0.0716
      8 N         139.2527  142.2231  165.4366 N.3     1  UNL1       -0.2733
      9 C         139.3970  141.4479  165.5539 C.3     1  UNL1        0.0896
     10 C         141.6583  142.1649  166.9841 C.2     1  UNL1        0.3214
     11 O         142.9888  142.3691  166.3223 O.2     1  UNL1       -0.2499
     12 O         141.5875  141.8929  168.4576 O.3     1  UNL1       -0.4484
     13 C         140.4392  143.8224  169.7647 C.3     1  UNL1        0.0513
     14 C         140.4308  142.4095  169.2609 C.3     1  UNL1        0.2086
     15 O         140.2622  139.6384  166.1674 O.3     1  UNL1       -0.4485
     16 C         141.0231  138.8129  165.1725 C.2     1  UNL1        0.3411
     17 O         140.4932  137.4759  164.7459 O.2     1  UNL1       -0.2449
     18 C         142.3136  139.3242  164.6042 C.ar    1  UNL1        0.0756
     19 C         143.6195  138.8985  165.2072 C.ar    1  UNL1        0.0064
     20 C         144.9101  139.4098  164.6389 C.ar    1  UNL1        0.0002
     21 C         144.8948  140.3468  163.4677 C.ar    1  UNL1        0.0000
     22 C         143.5889  140.7725  162.8647 C.ar    1  UNL1        0.0002
     23 C         142.2983  140.2612  163.4330 C.ar    1  UNL1        0.0064
@<TRIPOS>BOND
     1    13    14    1
     2    14    12    1
     3    12    10    1
     4    10    11    2
     5    10     1    1
     6     1     2    1
     7     2    15    1
     8    15    16    1
     9    16    17    2
    10    16    18    1
    11    18    19   ar
    12    19    20   ar
    13    20    21   ar
    14    21    22   ar
    15    22    23   ar
    16     2     3    1
    17     3     4    1
    18     4     5    1
    19     5     6    1
    20     6     7    1
    21     7     8    1
    22     8     9    1
    23     7     1    1
    24    23    18   ar
    25     8     4    1
@<TRIPOS>MOLECULE
*****
 23 25 0 0 0
SMALL
GASTEIGER

@<TRIPOS>ATOM
      1 C         138.3281  139.8510  164.2399 C.3     1  UNL1        0.1535
      2 C         138.0559  141.2999  163.9632 C.3     1  UNL1        0.1823
      3 C         137.7447  141.7512  162.5670 C.3     1  UNL1        0.0602
      4 C         137.7442  140.6285  161.5576 C.3     1  UNL1        0.0612
      5 C         137.8113  139.3408  160.7913 C.3     1  UNL1        0.0175
      6 C         138.1481  138.2437  161.7572 C.3     1  UNL1        0.0180
      7 C         138.2892  138.8534  163.1204 C.3     1  UNL1        0.0716
      8 N         138.0396  140.3273  162.9970 N.3     1  UNL1       -0.2733
      9 C         138.0163  140.9828  163.4501 C.3     1  UNL1        0.0896
     10 C         138.6392  139.3996  165.6361 C.2     1  UNL1        0.3214
     11 O         137.5422  138.8837  166.5196 O.2     1  UNL1       -0.2499
     12 O         140.0474  139.4642  166.1490 O.3     1  UNL1       -0.4484
     13 C         142.5153  138.7488  165.7653 C.3     1  UNL1        0.0513
     14 C         141.1966  139.2099  165.2191 C.3     1  UNL1        0.2086
     15 O         138.0948  142.2974  165.0827 O.3     1  UNL1       -0.4485
     16 C         139.2088  143.2992  165.1563 C.2     1  UNL1        0.3411
     17 O         139.0311  144.6636  164.5589 O.2     1  UNL1       -0.2449
     18 C         140.5005  142.9366  165.8272 C.ar    1  UNL1        0.0756
     19 C         141.7702  142.8825  165.0303 C.ar    1  UNL1        0.0064
     20 C         143.0619  142.5200  165.7012 C.ar    1  UNL1        0.0002
     21 C         143.0839  142.2115  167.1690 C.ar    1  UNL1        0.0000
     22 C         141.8142  142.2657  167.9659 C.ar    1  UNL1        0.0002
     23 C         140.5225  142.6282  167.2950 C.ar    1  UNL1        0.0064
@<TRIPOS>BOND
     1    13    14    1
     2    14    12    1
     3    12    10    1
     4    10    11    2
     5    10     1    1
     6     1     2    1
     7     2    15    1
     8    15    16    1
     9    16    17    2
    10    16    18    1
    11    18    19   ar
    12    19    20   ar
    13    20    21   ar
    14    21    22   ar
    15    22    23   ar
    16     2     3    1
    17     3     4    1
    18     4     5    1
    19     5     6    1
    20     6     7    1
    21     7     8    1
    22     8     9    1
    23     7     1    1
    24    23    18   ar
    25     8     4    1
@<TRIPOS>MOLECULE
*****
 23 25 0 0 0
SMALL
GASTEIGER

@<TRIPOS>ATOM
      1 C         138.8165  141.1555  165.2488 C.3     1  UNL1        0.1535
      2 C         140.0248  141.4472  166.0884 C.3     1  UNL1        0.1823
      3 C         140.4693  142.8646  166.2963 C.3     1  UNL1        0.0602
      4 C         139.5966  143.8779  165.5955 C.3     1  UNL1        0.0612
      5 C         138.5753  144.6437  164.8078 C.3     1  UNL1        0.0175
      6 C         137.6211  143.6569  164.2031 C.3     1  UNL1        0.0180
      7 C         138.0527  142.2812  164.6170 C.3     1  UNL1        0.0716
      8 N         139.2736  142.4178  165.4776 N.3     1  UNL1       -0.2733
      9 C         139.7902  141.9642  165.8812 C.3     1  UNL1        0.0896
     10 C         138.3721  139.7380  165.0409 C.2     1  UNL1        0.3214
     11 O         137.6656  139.0043  166.1422 O.2     1  UNL1       -0.2499
     12 O         138.6340  139.0541  163.7318 O.3     1  UNL1       -0.4484
     13 C         140.5093  137.4866  164.6128 C.3     1  UNL1        0.0513
     14 C         139.3405  137.7311  163.7050 C.3     1  UNL1        0.2086
     15 O         140.7886  140.3214  166.7201 O.3     1  UNL1       -0.4485
     16 C         142.2500  140.4808  167.0181 C.2     1  UNL1        0.3411
     17 O         142.7202  140.5696  168.4398 O.2     1  UNL1       -0.2449
     18 C         143.2413  140.5513  165.8946 C.ar    1  UNL1        0.0756
     19 C         143.7295  139.2905  165.2448 C.ar    1  UNL1        0.0064
     20 C         144.7208  139.3610  164.1213 C.ar    1  UNL1        0.0002
     21 C         145.2239  140.6923  163.6475 C.ar    1  UNL1        0.0000
     22 C         144.7357  141.9531  164.2972 C.ar    1  UNL1        0.0002
     23 C         143.7444  141.8826  165.4208 C.ar    1  UNL1        0.0064
@<TRIPOS>BOND
     1    13    14    1
     2    14    12    1
     3    12    10    1
     4    10    11    2
     5    10     1    1
     6     1     2    1
     7     2    15    1
     8    15    16    1
     9    16    17    2
    10    16    18    1
    11    18    19   ar
    12    19    20   ar
    13    20    21   ar
    14    21    22   ar
    15    22    23   ar
    16     2     3    1
    17     3     4    1
    18     4     5    1
    19     5     6    1
    20     6     7    1
    21     7     8    1
    22     8     9    1
    23     7     1    1
    24    23    18   ar
    25     8     4    1
@<TRIPOS>MOLECULE
*****
 23 25 0 0 0
SMALL
GASTEIGER

@<TRIPOS>ATOM
      1 C         140.7760  140.6818  167.5725 C.3     1  UNL1        0.1535
      2 C         142.0986  140.0350  167.8595 C.3     1  UNL1        0.1823
      3 C         142.3736  139.4606  169.2175 C.3     1  UNL1        0.0602
      4 C         141.2208  139.6134  170.1804 C.3     1  UNL1        0.0612
      5 C         139.9395  139.9002  170.9056 C.3     1  UNL1        0.0175
      6 C         139.0171  140.6052  169.9558 C.3     1  UNL1        0.0180
      7 C         139.7284  140.7543  168.6436 C.3     1  UNL1        0.0716
      8 N         141.0904  140.1413  168.7824 N.3     1  UNL1       -0.2733
      9 C         141.7492  140.0133  168.3522 C.3     1  UNL1        0.0896
     10 C         140.5010  141.2563  166.2144 C.2     1  UNL1        0.3214
     11 O         140.7985  142.6999  165.9364 O.2     1  UNL1       -0.2499
     12 O         139.9284  140.3870  165.1343 O.3     1  UNL1       -0.4484
     13 C         137.8033  140.7588  163.6867 C.3     1  UNL1        0.0513
     14 C         138.4418  140.2886  164.9600 C.3     1  UNL1        0.2086
     15 O         143.1461  139.9627  166.7884 O.3     1  UNL1       -0.4485
     16 C         143.4415  138.6551  166.1152 C.2     1  UNL1        0.3411
     17 O         144.3679  137.6699  166.7644 O.2     1  UNL1       -0.2449
     18 C         142.8106  138.3327  164.7931 C.ar    1  UNL1        0.0756
     19 C         143.4322  138.8340  163.5233 C.ar    1  UNL1        0.0064
     20 C         142.8013  138.5115  162.2012 C.ar    1  UNL1        0.0002
     21 C         141.5488  137.6878  162.1489 C.ar    1  UNL1        0.0000
     22 C         140.9273  137.1865  163.4187 C.ar    1  UNL1        0.0002
     23 C         141.5581  137.5089  164.7408 C.ar    1  UNL1        0.0064
@<TRIPOS>BOND
     1    13    14    1
     2    14    12    1
     3    12    10    1
     4    10    11    2
     5    10     1    1
     6     1     2    1
     7     2    15    1
     8    15    16    1
     9    16    17    2
    10    16    18    1
    11    18    19   ar
    12    19    20   ar
    13    20    21   ar
    14    21    22   ar
    15    22    23   ar
    16     2     3    1
    17     3     4    1
    18     4     5    1
    19     5     6    1
    20     6     7    1
    21     7     8    1
    22     8     9    1
    23     7     1    1
    24    23    18   ar
    25     8     4    1
