@<TRIPOS>MOLECULE
*****
 33 37 0 0 0
SMALL
GASTEIGER

@<TRIPOS>ATOM
      1 N         140.5544  144.9181  161.5167 N.3     1  UNL1       -0.2712
      2 C         139.5286  145.6104  162.3643 C.3     1  UNL1        0.0738
      3 C         139.4709  144.9079  163.6884 C.3     1  UNL1        0.0372
      4 C         138.8013  144.9016  165.0306 C.3     1  UNL1        0.0245
      5 C         139.3776  143.7713  165.8309 C.3     1  UNL1        0.0909
      6 N         140.4034  143.0790  164.9831 N.pl3   1  UNL1       -0.3077
      7 C         140.4611  143.7815  163.6591 C.3     1  UNL1        0.0901
      8 C         141.1307  143.7878  162.3168 C.3     1  UNL1        0.0921
      9 C         141.2269  141.8926  165.3884 C.ar    1  UNL1        0.0478
     10 C         141.4833  141.6184  166.8406 C.ar    1  UNL1        0.0145
     11 C         142.3068  140.4319  167.2458 C.ar    1  UNL1        0.0051
     12 C         142.8739  139.5197  166.1989 C.ar    1  UNL1        0.0715
     13 C         142.6175  139.7939  164.7465 C.ar    1  UNL1        0.0051
     14 C         141.7940  140.9803  164.3413 C.ar    1  UNL1        0.0145
     15 C         143.6974  138.3333  166.6041 C.3     1  UNL1        0.4186
     16 F         144.5209  137.1468  167.0094 F       1  UNL1       -0.1659
     17 F         144.2885  138.2731  165.2268 F       1  UNL1       -0.1659
     18 F         143.1063  138.3934  167.9814 F       1  UNL1       -0.1659
     19 C         140.9368  145.2908  160.1149 C.3     1  UNL1        0.0731
     20 C         140.8401  144.2746  159.0158 C.3     1  UNL1        0.0294
     21 C         139.5399  143.5737  158.7545 C.3     1  UNL1        0.0666
     22 S         139.3510  142.1534  159.1985 S.3     1  UNL1       -0.0756
     23 C         140.2422  139.7070  161.1658 C.3     1  UNL1        0.1337
     24 N         139.1918  140.7367  161.4596 N.ar    1  UNL1       -0.2918
     25 C         138.7821  141.8612  160.5553 C.ar    1  UNL1        0.1930
     26 N         137.7037  142.6422  161.2461 N.ar    1  UNL1       -0.1224
     27 N         137.4469  142.0004  162.5773 N.ar    1  UNL1       -0.1328
     28 C         138.3665  140.8227  162.7093 C.ar    1  UNL1        0.1432
     29 C         138.4469  139.8941  163.8846 C.3     1  UNL1        0.0588
     30 C         138.1230  140.2424  165.3072 C.3     1  UNL1        0.0075
     31 C         138.3411  139.0178  166.1454 C.3     1  UNL1        0.0005
     32 C         138.7998  137.9126  165.2409 C.3     1  UNL1        0.0005
     33 C         138.8651  138.4542  163.8436 C.3     1  UNL1        0.0075
@<TRIPOS>BOND
     1    23    24    1
     2    24    25   ar
     3    25    22    1
     4    22    21    1
     5    21    20    1
     6    20    19    1
     7    19     1    1
     8     1     2    1
     9     2     3    1
    10     3     4    1
    11     4     5    1
    12     5     6    1
    13     6     9    1
    14     9    10   ar
    15    10    11   ar
    16    11    12   ar
    17    12    15    1
    18    15    16    1
    19    15    17    1
    20    15    18    1
    21    12    13   ar
    22    13    14   ar
    23     6     7    1
    24     7     8    1
    25    25    26   ar
    26    26    27   ar
    27    27    28   ar
    28    28    29    1
    29    29    30    1
    30    30    31    1
    31    31    32    1
    32    32    33    1
    33    28    24   ar
    34    33    29    1
    35     8     1    1
    36     7     3    1
    37    14     9   ar
@<TRIPOS>MOLECULE
*****
 33 37 0 0 0
SMALL
GASTEIGER

@<TRIPOS>ATOM
      1 N         142.0713  138.1808  162.5628 N.3     1  UNL1       -0.2712
      2 C         140.6619  137.6676  162.5805 C.3     1  UNL1        0.0738
      3 C         140.0038  138.1640  163.8337 C.3     1  UNL1        0.0372
      4 C         138.7259  138.1535  164.6192 C.3     1  UNL1        0.0245
      5 C         138.9387  138.9670  165.8614 C.3     1  UNL1        0.0909
      6 N         140.3481  139.4802  165.8436 N.pl3   1  UNL1       -0.3077
      7 C         141.0063  138.9839  164.5904 C.3     1  UNL1        0.0901
      8 C         142.2842  138.9943  163.8049 C.3     1  UNL1        0.0921
      9 C         140.9871  140.3389  166.8945 C.ar    1  UNL1        0.0478
     10 C         142.1793  139.8346  167.6522 C.ar    1  UNL1        0.0145
     11 C         142.8183  140.6933  168.7031 C.ar    1  UNL1        0.0051
     12 C         142.2650  142.0564  168.9962 C.ar    1  UNL1        0.0715
     13 C         141.0728  142.5608  168.2384 C.ar    1  UNL1        0.0051
     14 C         140.4338  141.7021  167.1875 C.ar    1  UNL1        0.0145
     15 C         142.9040  142.9151  170.0470 C.3     1  UNL1        0.4186
     16 F         143.5430  143.7738  171.0979 F       1  UNL1       -0.1659
     17 F         144.1310  142.0532  170.0053 F       1  UNL1       -0.1659
     18 F         141.6771  143.7770  170.0888 F       1  UNL1       -0.1659
     19 C         143.0892  137.9254  161.4910 C.3     1  UNL1        0.0731
     20 C         144.1355  138.9569  161.1892 C.3     1  UNL1        0.0294
     21 C         143.8395  140.0651  160.2225 C.3     1  UNL1        0.0666
     22 S         143.9570  141.4946  160.6615 S.3     1  UNL1       -0.0756
     23 C         140.7770  142.2016  160.8556 C.3     1  UNL1        0.1337
     24 N         141.7699  142.2896  161.9766 N.ar    1  UNL1       -0.2918
     25 C         143.2315  141.9647  161.8874 C.ar    1  UNL1        0.1930
     26 N         143.8404  142.1923  163.2392 N.ar    1  UNL1       -0.1224
     27 N         142.7550  142.6579  164.1639 N.ar    1  UNL1       -0.1328
     28 C         141.4753  142.7181  163.3837 C.ar    1  UNL1        0.1432
     29 C         140.1363  143.1338  163.9168 C.3     1  UNL1        0.0588
     30 C         138.8936  142.2937  163.9312 C.3     1  UNL1        0.0075
     31 C         137.7941  143.1032  164.5524 C.3     1  UNL1        0.0005
     32 C         138.3573  144.4435  164.9219 C.3     1  UNL1        0.0005
     33 C         139.8048  144.4624  164.5290 C.3     1  UNL1        0.0075
@<TRIPOS>BOND
     1    23    24    1
     2    24    25   ar
     3    25    22    1
     4    22    21    1
     5    21    20    1
     6    20    19    1
     7    19     1    1
     8     1     2    1
     9     2     3    1
    10     3     4    1
    11     4     5    1
    12     5     6    1
    13     6     9    1
    14     9    10   ar
    15    10    11   ar
    16    11    12   ar
    17    12    15    1
    18    15    16    1
    19    15    17    1
    20    15    18    1
    21    12    13   ar
    22    13    14   ar
    23     6     7    1
    24     7     8    1
    25    25    26   ar
    26    26    27   ar
    27    27    28   ar
    28    28    29    1
    29    29    30    1
    30    30    31    1
    31    31    32    1
    32    32    33    1
    33    28    24   ar
    34    33    29    1
    35     8     1    1
    36     7     3    1
    37    14     9   ar
@<TRIPOS>MOLECULE
*****
 33 37 0 0 0
SMALL
GASTEIGER

@<TRIPOS>ATOM
      1 N         142.2763  141.3181  161.4590 N.3     1  UNL1       -0.2712
      2 C         143.4254  140.3553  161.5072 C.3     1  UNL1        0.0738
      3 C         143.6503  139.9734  162.9403 C.3     1  UNL1        0.0372
      4 C         144.4995  139.1424  163.8558 C.3     1  UNL1        0.0245
      5 C         144.0141  139.3555  165.2590 C.3     1  UNL1        0.0909
      6 N         142.8649  140.3184  165.2107 N.pl3   1  UNL1       -0.3077
      7 C         142.6401  140.7002  163.7777 C.3     1  UNL1        0.0901
      8 C         141.7909  141.5313  162.8622 C.3     1  UNL1        0.0921
      9 C         142.0786  140.8125  166.3887 C.ar    1  UNL1        0.0478
     10 C         141.5567  142.2187  166.4054 C.ar    1  UNL1        0.0145
     11 C         140.7704  142.7128  167.5833 C.ar    1  UNL1        0.0051
     12 C         140.5061  141.8009  168.7445 C.ar    1  UNL1        0.0715
     13 C         141.0280  140.3947  168.7278 C.ar    1  UNL1        0.0051
     14 C         141.8143  139.9005  167.5499 C.ar    1  UNL1        0.0145
     15 C         139.7198  142.2951  169.9225 C.3     1  UNL1        0.4186
     16 F         138.9335  142.7892  171.1004 F       1  UNL1       -0.1659
     17 F         140.1915  143.6928  169.6510 F       1  UNL1       -0.1659
     18 F         139.2481  140.8973  170.1940 F       1  UNL1       -0.1659
     19 C         141.7116  141.9558  160.2243 C.3     1  UNL1        0.0731
     20 C         140.6024  141.2819  159.4723 C.3     1  UNL1        0.0294
     21 C         140.8045  139.9053  158.9117 C.3     1  UNL1        0.0666
     22 S         140.0422  138.7449  159.4794 S.3     1  UNL1       -0.0756
     23 C         137.9418  139.6785  161.7959 C.3     1  UNL1        0.1337
     24 N         139.1771  138.8540  162.0062 N.ar    1  UNL1       -0.2918
     25 C         140.1426  138.4249  160.9414 C.ar    1  UNL1        0.1930
     26 N         141.2260  137.6195  161.5952 N.ar    1  UNL1       -0.1224
     27 N         140.9302  137.5508  163.0642 N.ar    1  UNL1       -0.1328
     28 C         139.6639  138.3138  163.3182 C.ar    1  UNL1        0.1432
     29 C         139.0008  138.5033  164.6503 C.3     1  UNL1        0.0588
     30 C         138.7742  139.8139  165.3438 C.3     1  UNL1        0.0075
     31 C         138.0813  139.5360  166.6449 C.3     1  UNL1        0.0005
     32 C         137.8798  138.0537  166.7554 C.3     1  UNL1        0.0005
     33 C         138.4481  137.4154  165.5227 C.3     1  UNL1        0.0075
@<TRIPOS>BOND
     1    23    24    1
     2    24    25   ar
     3    25    22    1
     4    22    21    1
     5    21    20    1
     6    20    19    1
     7    19     1    1
     8     1     2    1
     9     2     3    1
    10     3     4    1
    11     4     5    1
    12     5     6    1
    13     6     9    1
    14     9    10   ar
    15    10    11   ar
    16    11    12   ar
    17    12    15    1
    18    15    16    1
    19    15    17    1
    20    15    18    1
    21    12    13   ar
    22    13    14   ar
    23     6     7    1
    24     7     8    1
    25    25    26   ar
    26    26    27   ar
    27    27    28   ar
    28    28    29    1
    29    29    30    1
    30    30    31    1
    31    31    32    1
    32    32    33    1
    33    28    24   ar
    34    33    29    1
    35     8     1    1
    36     7     3    1
    37    14     9   ar
@<TRIPOS>MOLECULE
*****
 33 37 0 0 0
SMALL
GASTEIGER

@<TRIPOS>ATOM
      1 N         142.0526  142.0820  161.1691 N.3     1  UNL1       -0.2712
      2 C         142.6249  140.7080  160.9832 C.3     1  UNL1        0.0738
      3 C         142.6043  140.0135  162.3126 C.3     1  UNL1        0.0372
      4 C         142.9452  138.7351  163.0193 C.3     1  UNL1        0.0245
      5 C         142.5710  138.8898  164.4636 C.3     1  UNL1        0.0909
      6 N         141.9987  140.2639  164.6495 N.pl3   1  UNL1       -0.3077
      7 C         142.0193  140.9583  163.3201 C.3     1  UNL1        0.0901
      8 C         141.6784  142.2367  162.6134 C.3     1  UNL1        0.0921
      9 C         141.4944  140.8419  165.9385 C.ar    1  UNL1        0.0478
     10 C         140.9389  142.2349  165.9693 C.ar    1  UNL1        0.0145
     11 C         140.4346  142.8130  167.2583 C.ar    1  UNL1        0.0051
     12 C         140.4858  141.9981  168.5165 C.ar    1  UNL1        0.0715
     13 C         141.0412  140.6050  168.4858 C.ar    1  UNL1        0.0051
     14 C         141.5455  140.0269  167.1968 C.ar    1  UNL1        0.0145
     15 C         139.9815  142.5761  169.8055 C.3     1  UNL1        0.4186
     16 F         139.4771  143.1542  171.0945 F       1  UNL1       -0.1659
     17 F         139.1579  141.3438  170.0360 F       1  UNL1       -0.1659
     18 F         140.8050  143.8085  169.5751 F       1  UNL1       -0.1659
     19 C         141.8842  143.1192  160.0987 C.3     1  UNL1        0.0731
     20 C         141.0225  142.8320  158.9050 C.3     1  UNL1        0.0294
     21 C         139.5772  143.2336  158.9091 C.3     1  UNL1        0.0666
     22 S         138.5276  142.2531  159.3415 S.3     1  UNL1       -0.0756
     23 C         139.2027  139.4544  160.8782 C.3     1  UNL1        0.1337
     24 N         138.6268  140.6887  161.5066 N.ar    1  UNL1       -0.2918
     25 C         138.3165  141.9751  160.8003 C.ar    1  UNL1        0.1930
     26 N         137.7580  142.9347  161.8089 N.ar    1  UNL1       -0.1224
     27 N         137.7232  142.2414  163.1386 N.ar    1  UNL1       -0.1328
     28 C         138.2601  140.8533  162.9519 C.ar    1  UNL1        0.1432
     29 C         138.4049  139.8125  164.0223 C.3     1  UNL1        0.0588
     30 C         138.0350  139.9760  165.4667 C.3     1  UNL1        0.0075
     31 C         138.3465  138.6901  166.1734 C.3     1  UNL1        0.0005
     32 C         138.9090  137.7319  165.1657 C.3     1  UNL1        0.0005
     33 C         138.9451  138.4255  163.8362 C.3     1  UNL1        0.0075
@<TRIPOS>BOND
     1    23    24    1
     2    24    25   ar
     3    25    22    1
     4    22    21    1
     5    21    20    1
     6    20    19    1
     7    19     1    1
     8     1     2    1
     9     2     3    1
    10     3     4    1
    11     4     5    1
    12     5     6    1
    13     6     9    1
    14     9    10   ar
    15    10    11   ar
    16    11    12   ar
    17    12    15    1
    18    15    16    1
    19    15    17    1
    20    15    18    1
    21    12    13   ar
    22    13    14   ar
    23     6     7    1
    24     7     8    1
    25    25    26   ar
    26    26    27   ar
    27    27    28   ar
    28    28    29    1
    29    29    30    1
    30    30    31    1
    31    31    32    1
    32    32    33    1
    33    28    24   ar
    34    33    29    1
    35     8     1    1
    36     7     3    1
    37    14     9   ar
@<TRIPOS>MOLECULE
*****
 33 37 0 0 0
SMALL
GASTEIGER

@<TRIPOS>ATOM
      1 N         141.2751  143.4223  160.0359 N.3     1  UNL1       -0.2712
      2 C         141.5193  144.7225  160.7430 C.3     1  UNL1        0.0738
      3 C         141.1261  144.5495  162.1802 C.3     1  UNL1        0.0372
      4 C         141.0340  145.2461  163.5054 C.3     1  UNL1        0.0245
      5 C         140.4899  144.2696  164.5056 C.3     1  UNL1        0.0909
      6 N         140.2456  142.9694  163.7985 N.pl3   1  UNL1       -0.3077
      7 C         140.6389  143.1424  162.3613 C.3     1  UNL1        0.0901
      8 C         140.7309  142.4458  161.0361 C.3     1  UNL1        0.0921
      9 C         139.7034  141.7163  164.4195 C.ar    1  UNL1        0.0478
     10 C         139.9299  141.4428  165.8769 C.ar    1  UNL1        0.0145
     11 C         139.3877  140.1897  166.4979 C.ar    1  UNL1        0.0051
     12 C         138.6190  139.2101  165.6616 C.ar    1  UNL1        0.0715
     13 C         138.3925  139.4835  164.2042 C.ar    1  UNL1        0.0051
     14 C         138.9347  140.7367  163.5832 C.ar    1  UNL1        0.0145
     15 C         138.0767  137.9570  166.2827 C.3     1  UNL1        0.4186
     16 F         137.5345  136.7038  166.9037 F       1  UNL1       -0.1659
     17 F         138.7820  137.1368  165.2435 F       1  UNL1       -0.1659
     18 F         137.3714  138.7772  167.3218 F       1  UNL1       -0.1659
     19 C         141.5302  143.1470  158.5837 C.3     1  UNL1        0.0731
     20 C         142.9335  143.1555  158.0539 C.3     1  UNL1        0.0294
     21 C         143.9043  142.0961  158.4846 C.3     1  UNL1        0.0666
     22 S         144.8529  142.3631  159.6154 S.3     1  UNL1       -0.0756
     23 C         143.8674  139.4979  160.8274 C.3     1  UNL1        0.1337
     24 N         143.9726  140.7872  161.5868 N.ar    1  UNL1       -0.2918
     25 C         144.4256  142.1042  161.0297 C.ar    1  UNL1        0.1930
     26 N         144.3763  143.1168  162.1352 N.ar    1  UNL1       -0.1224
     27 N         143.8929  142.4257  163.3756 N.ar    1  UNL1       -0.1328
     28 C         143.6433  140.9859  163.0368 C.ar    1  UNL1        0.1432
     29 C         143.1510  139.9302  163.9818 C.3     1  UNL1        0.0588
     30 C         143.5332  139.7917  165.4256 C.3     1  UNL1        0.0075
     31 C         142.8085  138.6036  165.9851 C.3     1  UNL1        0.0005
     32 C         141.9783  138.0077  164.8870 C.3     1  UNL1        0.0005
     33 C         142.1900  138.8276  163.6489 C.3     1  UNL1        0.0075
@<TRIPOS>BOND
     1    23    24    1
     2    24    25   ar
     3    25    22    1
     4    22    21    1
     5    21    20    1
     6    20    19    1
     7    19     1    1
     8     1     2    1
     9     2     3    1
    10     3     4    1
    11     4     5    1
    12     5     6    1
    13     6     9    1
    14     9    10   ar
    15    10    11   ar
    16    11    12   ar
    17    12    15    1
    18    15    16    1
    19    15    17    1
    20    15    18    1
    21    12    13   ar
    22    13    14   ar
    23     6     7    1
    24     7     8    1
    25    25    26   ar
    26    26    27   ar
    27    27    28   ar
    28    28    29    1
    29    29    30    1
    30    30    31    1
    31    31    32    1
    32    32    33    1
    33    28    24   ar
    34    33    29    1
    35     8     1    1
    36     7     3    1
    37    14     9   ar
@<TRIPOS>MOLECULE
*****
 33 37 0 0 0
SMALL
GASTEIGER

@<TRIPOS>ATOM
      1 N         142.2635  142.6067  160.6908 N.3     1  UNL1       -0.2712
      2 C         142.1840  144.0139  161.2041 C.3     1  UNL1        0.0738
      3 C         141.4019  143.9969  162.4840 C.3     1  UNL1        0.0372
      4 C         140.8694  144.8560  163.5922 C.3     1  UNL1        0.0245
      5 C         140.1364  143.9694  164.5549 C.3     1  UNL1        0.0909
      6 N         140.2159  142.5622  164.0415 N.pl3   1  UNL1       -0.3077
      7 C         140.9980  142.5792  162.7616 C.3     1  UNL1        0.0901
      8 C         141.5305  141.7200  161.6533 C.3     1  UNL1        0.0921
      9 C         139.6182  141.3507  164.6935 C.ar    1  UNL1        0.0478
     10 C         139.6098  141.2309  166.1886 C.ar    1  UNL1        0.0145
     11 C         139.0121  140.0194  166.8406 C.ar    1  UNL1        0.0051
     12 C         138.4227  138.9278  165.9975 C.ar    1  UNL1        0.0715
     13 C         138.4310  139.0476  164.5022 C.ar    1  UNL1        0.0051
     14 C         139.0288  140.2591  163.8502 C.ar    1  UNL1        0.0145
     15 C         137.8250  137.7164  166.6495 C.3     1  UNL1        0.4186
     16 F         137.2273  136.5049  167.3015 F       1  UNL1       -0.1659
     17 F         137.1218  138.5964  167.6400 F       1  UNL1       -0.1659
     18 F         138.5282  136.8363  165.6590 F       1  UNL1       -0.1659
     19 C         142.9546  142.1639  159.4353 C.3     1  UNL1        0.0731
     20 C         143.9460  141.0393  159.4816 C.3     1  UNL1        0.0294
     21 C         143.4785  139.6372  159.7383 C.3     1  UNL1        0.0666
     22 S         144.0903  138.8339  160.8475 S.3     1  UNL1       -0.0756
     23 C         144.8252  140.7762  163.3648 C.3     1  UNL1        0.1337
     24 N         143.7800  139.7003  163.3571 N.ar    1  UNL1       -0.2918
     25 C         143.4423  138.8075  162.2000 C.ar    1  UNL1        0.1930
     26 N         142.3426  137.8837  162.6328 N.ar    1  UNL1       -0.1224
     27 N         142.0008  138.2055  164.0575 N.ar    1  UNL1       -0.1328
     28 C         142.8891  139.3282  164.5051 C.ar    1  UNL1        0.1432
     29 C         142.8869  139.9668  165.8624 C.3     1  UNL1        0.0588
     30 C         142.7120  139.2552  167.1713 C.3     1  UNL1        0.0075
     31 C         142.7763  140.2776  168.2670 C.3     1  UNL1        0.0005
     32 C         142.9909  141.6211  167.6353 C.3     1  UNL1        0.0005
     33 C         143.0593  141.4290  166.1492 C.3     1  UNL1        0.0075
@<TRIPOS>BOND
     1    23    24    1
     2    24    25   ar
     3    25    22    1
     4    22    21    1
     5    21    20    1
     6    20    19    1
     7    19     1    1
     8     1     2    1
     9     2     3    1
    10     3     4    1
    11     4     5    1
    12     5     6    1
    13     6     9    1
    14     9    10   ar
    15    10    11   ar
    16    11    12   ar
    17    12    15    1
    18    15    16    1
    19    15    17    1
    20    15    18    1
    21    12    13   ar
    22    13    14   ar
    23     6     7    1
    24     7     8    1
    25    25    26   ar
    26    26    27   ar
    27    27    28   ar
    28    28    29    1
    29    29    30    1
    30    30    31    1
    31    31    32    1
    32    32    33    1
    33    28    24   ar
    34    33    29    1
    35     8     1    1
    36     7     3    1
    37    14     9   ar
@<TRIPOS>MOLECULE
*****
 33 37 0 0 0
SMALL
GASTEIGER

@<TRIPOS>ATOM
      1 N         142.2046  144.0284  162.0483 N.3     1  UNL1       -0.2712
      2 C         143.5686  143.5643  161.6310 C.3     1  UNL1        0.0738
      3 C         144.0840  142.6318  162.6868 C.3     1  UNL1        0.0372
      4 C         145.2456  141.7687  163.0815 C.3     1  UNL1        0.0245
      5 C         144.9181  141.1230  164.3952 C.3     1  UNL1        0.0909
      6 N         143.5540  141.5871  164.8125 N.pl3   1  UNL1       -0.3077
      7 C         143.0386  142.5196  163.7567 C.3     1  UNL1        0.0901
      8 C         141.8771  143.3828  163.3620 C.3     1  UNL1        0.0921
      9 C         142.8322  141.1887  166.0656 C.ar    1  UNL1        0.0478
     10 C         142.1101  142.2235  166.8764 C.ar    1  UNL1        0.0145
     11 C         141.3882  141.8251  168.1295 C.ar    1  UNL1        0.0051
     12 C         141.3886  140.3918  168.5717 C.ar    1  UNL1        0.0715
     13 C         142.1107  139.3569  167.7609 C.ar    1  UNL1        0.0051
     14 C         142.8326  139.7553  166.5078 C.ar    1  UNL1        0.0145
     15 C         140.6667  139.9934  169.8248 C.3     1  UNL1        0.4186
     16 F         139.9449  139.5950  171.0779 F       1  UNL1       -0.1659
     17 F         139.6366  141.0531  169.5684 F       1  UNL1       -0.1659
     18 F         141.6969  138.9337  170.0813 F       1  UNL1       -0.1659
     19 C         141.3230  144.9725  161.2858 C.3     1  UNL1        0.0731
     20 C         140.2293  144.4358  160.4106 C.3     1  UNL1        0.0294
     21 C         140.4906  143.2562  159.5217 C.3     1  UNL1        0.0666
     22 S         139.7641  141.9650  159.7560 S.3     1  UNL1       -0.0756
     23 C         137.7338  141.3556  162.2372 C.3     1  UNL1        0.1337
     24 N         139.1430  140.8580  162.1084 N.ar    1  UNL1       -0.2918
     25 C         140.0762  141.1381  160.9680 C.ar    1  UNL1        0.1930
     26 N         141.3764  140.4462  161.2523 N.ar    1  UNL1       -0.1224
     27 N         141.2468  139.7385  162.5684 N.ar    1  UNL1       -0.1328
     28 C         139.8665  139.9930  163.0976 C.ar    1  UNL1        0.1432
     29 C         139.3077  139.4736  164.3892 C.3     1  UNL1        0.0588
     30 C         138.9088  138.0552  164.6701 C.3     1  UNL1        0.0075
     31 C         138.4043  137.9864  166.0811 C.3     1  UNL1        0.0005
     32 C         138.4915  139.3623  166.6721 C.3     1  UNL1        0.0005
     33 C         139.0498  140.2815  165.6264 C.3     1  UNL1        0.0075
@<TRIPOS>BOND
     1    23    24    1
     2    24    25   ar
     3    25    22    1
     4    22    21    1
     5    21    20    1
     6    20    19    1
     7    19     1    1
     8     1     2    1
     9     2     3    1
    10     3     4    1
    11     4     5    1
    12     5     6    1
    13     6     9    1
    14     9    10   ar
    15    10    11   ar
    16    11    12   ar
    17    12    15    1
    18    15    16    1
    19    15    17    1
    20    15    18    1
    21    12    13   ar
    22    13    14   ar
    23     6     7    1
    24     7     8    1
    25    25    26   ar
    26    26    27   ar
    27    27    28   ar
    28    28    29    1
    29    29    30    1
    30    30    31    1
    31    31    32    1
    32    32    33    1
    33    28    24   ar
    34    33    29    1
    35     8     1    1
    36     7     3    1
    37    14     9   ar
@<TRIPOS>MOLECULE
*****
 33 37 0 0 0
SMALL
GASTEIGER

@<TRIPOS>ATOM
      1 N         143.7245  141.7925  160.8174 N.3     1  UNL1       -0.2712
      2 C         144.4688  142.9085  161.4886 C.3     1  UNL1        0.0738
      3 C         143.9473  143.0370  162.8891 C.3     1  UNL1        0.0372
      4 C         144.0850  143.8061  164.1695 C.3     1  UNL1        0.0245
      5 C         143.1034  143.2449  165.1553 C.3     1  UNL1        0.0909
      6 N         142.3590  142.1289  164.4840 N.pl3   1  UNL1       -0.3077
      7 C         142.8806  142.0004  163.0835 C.3     1  UNL1        0.0901
      8 C         142.7429  141.2312  161.8031 C.3     1  UNL1        0.0921
      9 C         141.2822  141.2889  165.1044 C.ar    1  UNL1        0.0478
     10 C         140.0543  140.9415  164.3161 C.ar    1  UNL1        0.0145
     11 C         138.9775  140.1016  164.9365 C.ar    1  UNL1        0.0051
     12 C         139.1286  139.6089  166.3452 C.ar    1  UNL1        0.0715
     13 C         140.3566  139.9563  167.1336 C.ar    1  UNL1        0.0051
     14 C         141.4334  140.7963  166.5132 C.ar    1  UNL1        0.0145
     15 C         138.0518  138.7689  166.9656 C.3     1  UNL1        0.4186
     16 F         136.9750  137.9289  167.5860 F       1  UNL1       -0.1659
     17 F         138.2266  139.5024  168.2623 F       1  UNL1       -0.1659
     18 F         137.8769  138.0354  165.6689 F       1  UNL1       -0.1659
     19 C         143.9263  141.3205  159.4080 C.3     1  UNL1        0.0731
     20 C         143.3732  142.1173  158.2638 C.3     1  UNL1        0.0294
     21 C         141.9371  141.9554  157.8620 C.3     1  UNL1        0.0666
     22 S         140.9590  143.0651  158.1107 S.3     1  UNL1       -0.0756
     23 C         138.7714  142.3937  160.4374 C.3     1  UNL1        0.1337
     24 N         139.8787  143.4011  160.5325 N.ar    1  UNL1       -0.2918
     25 C         140.8842  143.7097  159.4631 C.ar    1  UNL1        0.1930
     26 N         141.8019  144.7761  159.9834 N.ar    1  UNL1       -0.1224
     27 N         141.3636  145.1266  161.3744 N.ar    1  UNL1       -0.1328
     28 C         140.1750  144.2768  161.7139 C.ar    1  UNL1        0.1432
     29 C         139.4159  144.2988  163.0075 C.3     1  UNL1        0.0588
     30 C         137.9857  143.8886  163.1976 C.3     1  UNL1        0.0075
     31 C         137.6396  144.0712  164.6456 C.3     1  UNL1        0.0005
     32 C         138.8560  144.5943  165.3505 C.3     1  UNL1        0.0005
     33 C         139.9538  144.7350  164.3381 C.3     1  UNL1        0.0075
@<TRIPOS>BOND
     1    23    24    1
     2    24    25   ar
     3    25    22    1
     4    22    21    1
     5    21    20    1
     6    20    19    1
     7    19     1    1
     8     1     2    1
     9     2     3    1
    10     3     4    1
    11     4     5    1
    12     5     6    1
    13     6     9    1
    14     9    10   ar
    15    10    11   ar
    16    11    12   ar
    17    12    15    1
    18    15    16    1
    19    15    17    1
    20    15    18    1
    21    12    13   ar
    22    13    14   ar
    23     6     7    1
    24     7     8    1
    25    25    26   ar
    26    26    27   ar
    27    27    28   ar
    28    28    29    1
    29    29    30    1
    30    30    31    1
    31    31    32    1
    32    32    33    1
    33    28    24   ar
    34    33    29    1
    35     8     1    1
    36     7     3    1
    37    14     9   ar
@<TRIPOS>MOLECULE
*****
 33 37 0 0 0
SMALL
GASTEIGER

@<TRIPOS>ATOM
      1 N         139.7414  142.0707  160.2933 N.3     1  UNL1       -0.2712
      2 C         139.6401  143.5436  160.0280 C.3     1  UNL1        0.0738
      3 C         140.1152  144.2688  161.2521 C.3     1  UNL1        0.0372
      4 C         140.3462  145.6272  161.8446 C.3     1  UNL1        0.0245
      5 C         140.8839  145.4422  163.2327 C.3     1  UNL1        0.0909
      6 N         140.9852  143.9693  163.4980 N.pl3   1  UNL1       -0.3077
      7 C         140.5101  143.2441  162.2739 C.3     1  UNL1        0.0901
      8 C         140.2791  141.8856  161.6813 C.3     1  UNL1        0.0921
      9 C         141.4756  143.3333  164.7649 C.ar    1  UNL1        0.0478
     10 C         142.9266  142.9847  164.9163 C.ar    1  UNL1        0.0145
     11 C         143.4169  142.3487  166.1832 C.ar    1  UNL1        0.0051
     12 C         142.4562  142.0613  167.2987 C.ar    1  UNL1        0.0715
     13 C         141.0051  142.4098  167.1473 C.ar    1  UNL1        0.0051
     14 C         140.5148  143.0458  165.8804 C.ar    1  UNL1        0.0145
     15 C         142.9465  141.4252  168.5656 C.3     1  UNL1        0.4186
     16 F         143.4369  140.7892  169.8326 F       1  UNL1       -0.1659
     17 F         142.0488  140.2485  168.3223 F       1  UNL1       -0.1659
     18 F         143.8443  142.6020  168.8090 F       1  UNL1       -0.1659
     19 C         139.3702  140.9752  159.3383 C.3     1  UNL1        0.0731
     20 C         138.0622  140.2573  159.4922 C.3     1  UNL1        0.0294
     21 C         137.4882  140.0290  160.8592 C.3     1  UNL1        0.0666
     22 S         137.8354  138.7839  161.6201 S.3     1  UNL1       -0.0756
     23 C         139.4358  139.6118  164.3409 C.3     1  UNL1        0.1337
     24 N         140.0046  138.8501  163.1805 N.ar    1  UNL1       -0.2918
     25 C         139.2690  138.4696  161.9299 C.ar    1  UNL1        0.1930
     26 N         140.2186  137.7195  161.0436 N.ar    1  UNL1       -0.1224
     27 N         141.5411  137.6365  161.7464 N.ar    1  UNL1       -0.1328
     28 C         141.4090  138.3352  163.0671 C.ar    1  UNL1        0.1432
     29 C         142.4910  138.4916  164.0941 C.3     1  UNL1        0.0588
     30 C         142.4138  138.0609  165.5288 C.3     1  UNL1        0.0075
     31 C         143.7153  138.4093  166.1881 C.3     1  UNL1        0.0005
     32 C         144.5970  139.0553  165.1607 C.3     1  UNL1        0.0005
     33 C         143.8403  139.1062  163.8665 C.3     1  UNL1        0.0075
@<TRIPOS>BOND
     1    23    24    1
     2    24    25   ar
     3    25    22    1
     4    22    21    1
     5    21    20    1
     6    20    19    1
     7    19     1    1
     8     1     2    1
     9     2     3    1
    10     3     4    1
    11     4     5    1
    12     5     6    1
    13     6     9    1
    14     9    10   ar
    15    10    11   ar
    16    11    12   ar
    17    12    15    1
    18    15    16    1
    19    15    17    1
    20    15    18    1
    21    12    13   ar
    22    13    14   ar
    23     6     7    1
    24     7     8    1
    25    25    26   ar
    26    26    27   ar
    27    27    28   ar
    28    28    29    1
    29    29    30    1
    30    30    31    1
    31    31    32    1
    32    32    33    1
    33    28    24   ar
    34    33    29    1
    35     8     1    1
    36     7     3    1
    37    14     9   ar
