@<TRIPOS>MOLECULE
*****
 48 53 0 0 0
SMALL
GASTEIGER

@<TRIPOS>ATOM
      1 N         138.3038  139.6348  162.2345 N.am    1  UNL1       -0.2681
      2 C         138.9754  140.4821  161.1948 C.2     1  UNL1        0.3082
      3 O         139.9867  141.5112  161.6047 O.2     1  UNL1       -0.2522
      4 N         138.6356  140.3002  159.7451 N.am    1  UNL1       -0.2681
      5 H         137.6400  138.9593  161.9654 H       1  UNL1        0.1564
      6 H         137.9718  139.6247  159.4760 H       1  UNL1        0.1564
      7 C         139.3230  140.1804  166.5834 C.ar    1  UNL1        0.0537
      8 C         138.9494  141.3674  165.7460 C.ar    1  UNL1        0.0058
      9 C         138.6097  141.1856  164.2964 C.ar    1  UNL1        0.0149
     10 C         138.6435  139.8166  163.6842 C.ar    1  UNL1        0.0516
     11 C         139.0171  138.6295  164.5216 C.ar    1  UNL1        0.0149
     12 C         139.3568  138.8114  165.9712 C.ar    1  UNL1        0.0058
     13 C         141.4231  141.2746  169.8258 C.3     1  UNL1        0.1518
     14 C         142.7562  141.9580  169.7504 C.3     1  UNL1        0.0310
     15 C         143.1074  142.1306  168.3022 C.3     1  UNL1        0.0237
     16 C         141.9913  141.5538  167.4827 C.3     1  UNL1        0.0942
     17 N         140.9504  141.0247  168.4243 N.am    1  UNL1       -0.2695
     18 C         139.6627  140.3622  168.0331 C.2     1  UNL1        0.2493
     19 O         138.7148  139.8815  169.0916 O.2     1  UNL1       -0.2699
     20 N         140.2993  139.4793  171.3306 N.am    1  UNL1       -0.3275
     21 C         140.6913  140.9057  171.0821 C.2     1  UNL1        0.2375
     22 O         140.3513  141.9633  172.0900 O.2     1  UNL1       -0.2736
     23 H         139.8190  139.2373  172.1552 H       1  UNL1        0.1450
     24 H         140.5224  138.7851  170.6691 H       1  UNL1        0.1450
     25 C         139.3072  141.1475  158.7054 C.ar    1  UNL1        0.0516
     26 C         140.5883  140.6870  158.0756 C.ar    1  UNL1        0.0148
     27 C         141.2599  141.5343  157.0359 C.ar    1  UNL1        0.0043
     28 C         140.6503  142.8422  156.6259 C.ar    1  UNL1        0.0361
     29 C         139.3692  143.3027  157.2557 C.ar    1  UNL1        0.0043
     30 C         138.6976  142.4553  158.2954 C.ar    1  UNL1        0.0148
     31 C         141.3219  143.6895  155.5862 C.ar    1  UNL1        0.1680
     32 N         142.5919  143.2192  154.9413 N.ar    1  UNL1       -0.1944
     33 C         143.2635  144.0665  153.9016 C.ar    1  UNL1        0.2240
     34 N         142.6650  145.3842  153.5067 N.ar    1  UNL1       -0.1807
     35 C         141.3950  145.8544  154.1516 C.ar    1  UNL1        0.2240
     36 N         140.7234  145.0070  155.1914 N.ar    1  UNL1       -0.1944
     37 N         144.5335  143.5963  153.2566 N.pl3   1  UNL1       -0.2729
     38 C         144.7294  142.1389  152.9607 C.3     1  UNL1        0.1257
     39 C         145.9994  141.6687  152.3158 C.3     1  UNL1        0.1637
     40 O         147.0735  142.6558  151.9668 O.3     1  UNL1       -0.3501
     41 C         146.8776  144.1133  152.2627 C.3     1  UNL1        0.1637
     42 C         145.6076  144.5835  152.9076 C.3     1  UNL1        0.1257
     43 N         140.7966  147.1719  153.7569 N.pl3   1  UNL1       -0.2729
     44 C         139.8990  147.9038  154.7102 C.3     1  UNL1        0.1257
     45 C         139.3005  149.2213  154.3154 C.3     1  UNL1        0.1637
     46 O         139.5996  149.8071  152.9673 O.3     1  UNL1       -0.3501
     47 C         140.4972  149.0753  152.0140 C.3     1  UNL1        0.1637
     48 C         141.0957  147.7577  152.4088 C.3     1  UNL1        0.1257
@<TRIPOS>BOND
     1    20    21   am
     2    21    22    2
     3    13    21    1
     4    13    14    1
     5    14    15    1
     6    15    16    1
     7    16    17    1
     8    17    18   am
     9    18    19    2
    10    18     7    1
    11     7     8   ar
    12     8     9   ar
    13     9    10   ar
    14    10     1    1
    15     1     2   am
    16     2     3    2
    17     2     4   am
    18     4    25    1
    19    25    26   ar
    20    26    27   ar
    21    27    28   ar
    22    28    31    1
    23    31    32   ar
    24    32    33   ar
    25    33    37    1
    26    37    38    1
    27    38    39    1
    28    39    40    1
    29    40    41    1
    30    41    42    1
    31    33    34   ar
    32    34    35   ar
    33    35    43    1
    34    43    44    1
    35    44    45    1
    36    45    46    1
    37    46    47    1
    38    47    48    1
    39    35    36   ar
    40    28    29   ar
    41    29    30   ar
    42    10    11   ar
    43    11    12   ar
    44    17    13    1
    45    12     7   ar
    46    30    25   ar
    47    36    31   ar
    48    42    37    1
    49    48    43    1
    50    20    23    1
    51    20    24    1
    52     1     5    1
    53     4     6    1
@<TRIPOS>MOLECULE
*****
 48 53 0 0 0
SMALL
GASTEIGER

@<TRIPOS>ATOM
      1 N         141.0288  138.1593  162.3188 N.am    1  UNL1       -0.2681
      2 C         141.5537  139.0611  161.2412 C.2     1  UNL1        0.3082
      3 O         141.9548  140.4685  161.5705 O.2     1  UNL1       -0.2522
      4 N         141.6775  138.5556  159.8344 N.am    1  UNL1       -0.2681
      5 H         140.7656  137.2356  162.1027 H       1  UNL1        0.1564
      6 H         141.4143  137.6319  159.6183 H       1  UNL1        0.1564
      7 C         140.6572  139.6759  166.5392 C.ar    1  UNL1        0.0537
      8 C         139.6559  140.0908  165.5023 C.ar    1  UNL1        0.0058
      9 C         139.7798  139.5853  164.0955 C.ar    1  UNL1        0.0149
     10 C         140.9050  138.6648  163.7256 C.ar    1  UNL1        0.0516
     11 C         141.9062  138.2499  164.7625 C.ar    1  UNL1        0.0149
     12 C         141.7824  138.7554  166.1693 C.ar    1  UNL1        0.0058
     13 C         141.5875  141.6840  169.8891 C.3     1  UNL1        0.1518
     14 C         142.8108  142.5421  170.0210 C.3     1  UNL1        0.0310
     15 C         143.5565  142.4893  168.7206 C.3     1  UNL1        0.0237
     16 C         142.7941  141.5985  167.7850 C.3     1  UNL1        0.0942
     17 N         141.5773  141.1008  168.5072 N.am    1  UNL1       -0.2695
     18 C         140.5334  140.1814  167.9460 C.2     1  UNL1        0.2493
     19 O         139.3657  139.7675  168.7916 O.2     1  UNL1       -0.2699
     20 N         140.3936  140.0853  171.5531 N.am    1  UNL1       -0.3275
     21 C         140.5558  141.4502  170.9525 C.2     1  UNL1        0.2375
     22 O         139.6861  142.5813  171.4153 O.2     1  UNL1       -0.2736
     23 H         139.7164  139.9319  172.2511 H       1  UNL1        0.1450
     24 H         140.9644  139.3428  171.2494 H       1  UNL1        0.1450
     25 C         142.2024  139.4574  158.7568 C.ar    1  UNL1        0.0516
     26 C         141.2499  140.2555  157.9168 C.ar    1  UNL1        0.0148
     27 C         141.7748  141.1574  156.8392 C.ar    1  UNL1        0.0043
     28 C         143.2523  141.2611  156.6017 C.ar    1  UNL1        0.0361
     29 C         144.2048  140.4630  157.4418 C.ar    1  UNL1        0.0043
     30 C         143.6798  139.5611  158.5194 C.ar    1  UNL1        0.0148
     31 C         143.7772  142.1630  155.5242 C.ar    1  UNL1        0.1680
     32 N         142.9547  143.3251  155.0521 N.ar    1  UNL1       -0.1944
     33 C         143.4796  144.2270  153.9746 C.ar    1  UNL1        0.2240
     34 N         144.8270  143.9667  153.3691 N.ar    1  UNL1       -0.1807
     35 C         145.6496  142.8045  153.8411 C.ar    1  UNL1        0.2240
     36 N         145.1246  141.9026  154.9187 N.ar    1  UNL1       -0.1944
     37 N         142.6570  145.3891  153.5025 N.pl3   1  UNL1       -0.2729
     38 C         141.2915  145.6240  154.0770 C.3     1  UNL1        0.1257
     39 C         140.4690  146.7862  153.6050 C.3     1  UNL1        0.1637
     40 O         141.0120  147.7134  152.5584 O.3     1  UNL1       -0.3501
     41 C         142.3776  147.4785  151.9839 C.3     1  UNL1        0.1637
     42 C         143.2001  146.3164  152.4559 C.3     1  UNL1        0.1257
     43 N         146.9970  142.5442  153.2356 N.pl3   1  UNL1       -0.2729
     44 C         148.0612  143.5999  153.2919 C.3     1  UNL1        0.1257
     45 C         149.4086  143.3395  152.6864 C.3     1  UNL1        0.1637
     46 O         149.6919  142.0236  152.0247 O.3     1  UNL1       -0.3501
     47 C         148.6278  140.9679  151.9684 C.3     1  UNL1        0.1637
     48 C         147.2803  141.2282  152.5739 C.3     1  UNL1        0.1257
@<TRIPOS>BOND
     1    20    21   am
     2    21    22    2
     3    13    21    1
     4    13    14    1
     5    14    15    1
     6    15    16    1
     7    16    17    1
     8    17    18   am
     9    18    19    2
    10    18     7    1
    11     7     8   ar
    12     8     9   ar
    13     9    10   ar
    14    10     1    1
    15     1     2   am
    16     2     3    2
    17     2     4   am
    18     4    25    1
    19    25    26   ar
    20    26    27   ar
    21    27    28   ar
    22    28    31    1
    23    31    32   ar
    24    32    33   ar
    25    33    37    1
    26    37    38    1
    27    38    39    1
    28    39    40    1
    29    40    41    1
    30    41    42    1
    31    33    34   ar
    32    34    35   ar
    33    35    43    1
    34    43    44    1
    35    44    45    1
    36    45    46    1
    37    46    47    1
    38    47    48    1
    39    35    36   ar
    40    28    29   ar
    41    29    30   ar
    42    10    11   ar
    43    11    12   ar
    44    17    13    1
    45    12     7   ar
    46    30    25   ar
    47    36    31   ar
    48    42    37    1
    49    48    43    1
    50    20    23    1
    51    20    24    1
    52     1     5    1
    53     4     6    1
@<TRIPOS>MOLECULE
*****
 48 53 0 0 0
SMALL
GASTEIGER

@<TRIPOS>ATOM
      1 N         138.4796  138.8477  161.3280 N.am    1  UNL1       -0.2681
      2 C         139.1857  139.8018  160.4108 C.2     1  UNL1        0.3082
      3 O         139.9675  140.9488  160.9792 O.2     1  UNL1       -0.2522
      4 N         139.1098  139.6089  158.9252 N.am    1  UNL1       -0.2681
      5 H         137.9665  138.0949  160.9549 H       1  UNL1        0.1564
      6 H         138.5966  138.8561  158.5521 H       1  UNL1        0.1564
      7 C         138.7072  139.4263  165.7848 C.ar    1  UNL1        0.0537
      8 C         139.2762  138.1874  165.1594 C.ar    1  UNL1        0.0058
      9 C         139.2003  137.9945  163.6738 C.ar    1  UNL1        0.0149
     10 C         138.5555  139.0406  162.8137 C.ar    1  UNL1        0.0516
     11 C         137.9865  140.2796  163.4391 C.ar    1  UNL1        0.0149
     12 C         138.0624  140.4724  164.9247 C.ar    1  UNL1        0.0058
     13 C         139.9987  140.8417  169.3132 C.3     1  UNL1        0.1518
     14 C         141.1254  141.8233  169.4432 C.3     1  UNL1        0.0310
     15 C         141.6276  142.1376  168.0651 C.3     1  UNL1        0.0237
     16 C         140.8113  141.3502  167.0835 C.3     1  UNL1        0.0942
     17 N         139.8046  140.5492  167.8549 N.am    1  UNL1       -0.2695
     18 C         138.7831  139.6192  167.2705 C.2     1  UNL1        0.2493
     19 O         137.8374  138.8820  168.1717 O.2     1  UNL1       -0.2699
     20 N         139.7991  139.1714  171.2933 N.am    1  UNL1       -0.3275
     21 C         139.2054  140.2554  170.4432 C.2     1  UNL1        0.2375
     22 O         137.8184  140.7530  170.7232 O.2     1  UNL1       -0.2736
     23 H         139.2784  138.7867  172.0350 H       1  UNL1        0.1450
     24 H         140.7095  138.8448  171.1096 H       1  UNL1        0.1450
     25 C         139.8158  140.5630  158.0080 C.ar    1  UNL1        0.0516
     26 C         139.1004  141.7767  157.4932 C.ar    1  UNL1        0.0148
     27 C         139.8064  142.7307  156.5760 C.ar    1  UNL1        0.0043
     28 C         141.2279  142.4711  156.1736 C.ar    1  UNL1        0.0361
     29 C         141.9434  141.2574  156.6884 C.ar    1  UNL1        0.0043
     30 C         141.2373  140.3033  157.6057 C.ar    1  UNL1        0.0148
     31 C         141.9340  143.4252  155.2564 C.ar    1  UNL1        0.1680
     32 N         141.2719  144.7106  154.8573 N.ar    1  UNL1       -0.1944
     33 C         141.9779  145.6647  153.9401 C.ar    1  UNL1        0.2240
     34 N         143.3461  145.3333  153.4220 N.ar    1  UNL1       -0.1807
     35 C         144.0082  144.0479  153.8212 C.ar    1  UNL1        0.2240
     36 N         143.3021  143.0938  154.7384 N.ar    1  UNL1       -0.1944
     37 N         141.3158  146.9501  153.5410 N.pl3   1  UNL1       -0.2729
     38 C         140.1308  147.4539  154.3104 C.3     1  UNL1        0.1257
     39 C         139.4687  148.7393  153.9112 C.3     1  UNL1        0.1637
     40 O         139.9916  149.5209  152.7427 O.3     1  UNL1       -0.3501
     41 C         141.1766  149.0172  151.9732 C.3     1  UNL1        0.1637
     42 C         141.8387  147.7317  152.3723 C.3     1  UNL1        0.1257
     43 N         145.3763  143.7166  153.3032 N.pl3   1  UNL1       -0.2729
     44 C         145.5903  142.4730  152.4920 C.3     1  UNL1        0.1257
     45 C         146.9584  142.1417  151.9740 C.3     1  UNL1        0.1637
     46 O         148.1126  143.0538  152.2671 O.3     1  UNL1       -0.3501
     47 C         147.8987  144.2973  153.0782 C.3     1  UNL1        0.1637
     48 C         146.5305  144.6287  153.5963 C.3     1  UNL1        0.1257
@<TRIPOS>BOND
     1    20    21   am
     2    21    22    2
     3    13    21    1
     4    13    14    1
     5    14    15    1
     6    15    16    1
     7    16    17    1
     8    17    18   am
     9    18    19    2
    10    18     7    1
    11     7     8   ar
    12     8     9   ar
    13     9    10   ar
    14    10     1    1
    15     1     2   am
    16     2     3    2
    17     2     4   am
    18     4    25    1
    19    25    26   ar
    20    26    27   ar
    21    27    28   ar
    22    28    31    1
    23    31    32   ar
    24    32    33   ar
    25    33    37    1
    26    37    38    1
    27    38    39    1
    28    39    40    1
    29    40    41    1
    30    41    42    1
    31    33    34   ar
    32    34    35   ar
    33    35    43    1
    34    43    44    1
    35    44    45    1
    36    45    46    1
    37    46    47    1
    38    47    48    1
    39    35    36   ar
    40    28    29   ar
    41    29    30   ar
    42    10    11   ar
    43    11    12   ar
    44    17    13    1
    45    12     7   ar
    46    30    25   ar
    47    36    31   ar
    48    42    37    1
    49    48    43    1
    50    20    23    1
    51    20    24    1
    52     1     5    1
    53     4     6    1
@<TRIPOS>MOLECULE
*****
 48 53 0 0 0
SMALL
GASTEIGER

@<TRIPOS>ATOM
      1 N         142.9064  139.3852  156.2021 N.am    1  UNL1       -0.2681
      2 C         142.7717  137.9061  156.4119 C.2     1  UNL1        0.3082
      3 O         142.4971  137.3650  157.7837 O.2     1  UNL1       -0.2522
      4 N         142.9115  136.9679  155.2498 N.am    1  UNL1       -0.2681
      5 H         143.0866  139.7403  155.3018 H       1  UNL1        0.1564
      6 H         143.0917  137.3230  154.3494 H       1  UNL1        0.1564
      7 C         142.4871  142.1995  159.6884 C.ar    1  UNL1        0.0537
      8 C         143.7659  141.4422  159.4855 C.ar    1  UNL1        0.0058
      9 C         143.9056  140.5041  158.3234 C.ar    1  UNL1        0.0149
     10 C         142.7666  140.3233  157.3643 C.ar    1  UNL1        0.0516
     11 C         141.4878  141.0806  157.5672 C.ar    1  UNL1        0.0149
     12 C         141.3481  142.0187  158.7292 C.ar    1  UNL1        0.0058
     13 C         141.8049  143.4176  163.4528 C.3     1  UNL1        0.1518
     14 C         141.4399  142.4819  164.5669 C.3     1  UNL1        0.0310
     15 C         141.3892  141.0914  164.0065 C.3     1  UNL1        0.0237
     16 C         141.7229  141.1678  162.5461 C.3     1  UNL1        0.0942
     17 N         141.9799  142.6055  162.2039 N.am    1  UNL1       -0.2695
     18 C         142.3473  143.1376  160.8505 C.2     1  UNL1        0.2493
     19 O         142.5749  144.6078  160.6591 O.2     1  UNL1       -0.2699
     20 N         140.9454  145.8193  162.9591 N.am    1  UNL1       -0.3275
     21 C         141.9667  144.9045  163.5676 C.2     1  UNL1        0.2375
     22 O         143.1497  145.4766  164.2909 O.2     1  UNL1       -0.2736
     23 H         141.0517  146.7951  163.0344 H       1  UNL1        0.1450
     24 H         140.1690  145.4438  162.4843 H       1  UNL1        0.1450
     25 C         142.7767  135.4888  155.4595 C.ar    1  UNL1        0.0516
     26 C         141.4852  134.7996  155.1327 C.ar    1  UNL1        0.0148
     27 C         141.3504  133.3204  155.3424 C.ar    1  UNL1        0.0043
     28 C         142.5073  132.5305  155.8790 C.ar    1  UNL1        0.0361
     29 C         143.7988  133.2198  156.2058 C.ar    1  UNL1        0.0043
     30 C         143.9335  134.6990  155.9961 C.ar    1  UNL1        0.0148
     31 C         142.3725  131.0514  156.0887 C.ar    1  UNL1        0.1680
     32 N         141.3520  130.2736  155.3118 N.ar    1  UNL1       -0.1944
     33 C         141.2173  128.7945  155.5215 C.ar    1  UNL1        0.2240
     34 N         142.1031  128.0931  156.5082 N.ar    1  UNL1       -0.1807
     35 C         143.1236  128.8709  157.2852 C.ar    1  UNL1        0.2240
     36 N         143.2583  130.3501  157.0754 N.ar    1  UNL1       -0.1944
     37 N         140.1968  128.0167  154.7446 N.pl3   1  UNL1       -0.2729
     38 C         139.1866  127.1749  155.4663 C.3     1  UNL1        0.1257
     39 C         138.1661  126.3971  154.6894 C.3     1  UNL1        0.1637
     40 O         138.1558  126.4612  153.1908 O.3     1  UNL1       -0.3501
     41 C         139.1660  127.3030  152.4691 C.3     1  UNL1        0.1637
     42 C         140.1865  128.0808  153.2460 C.3     1  UNL1        0.1257
     43 N         144.0093  128.1696  158.2718 N.pl3   1  UNL1       -0.2729
     44 C         143.6146  128.1006  159.7174 C.3     1  UNL1        0.1257
     45 C         144.5004  127.3992  160.7040 C.3     1  UNL1        0.1637
     46 O         145.7809  126.7670  160.2452 O.3     1  UNL1       -0.3501
     47 C         146.1756  126.8360  158.7998 C.3     1  UNL1        0.1637
     48 C         145.2898  127.5373  157.8130 C.3     1  UNL1        0.1257
@<TRIPOS>BOND
     1    20    21   am
     2    21    22    2
     3    13    21    1
     4    13    14    1
     5    14    15    1
     6    15    16    1
     7    16    17    1
     8    17    18   am
     9    18    19    2
    10    18     7    1
    11     7     8   ar
    12     8     9   ar
    13     9    10   ar
    14    10     1    1
    15     1     2   am
    16     2     3    2
    17     2     4   am
    18     4    25    1
    19    25    26   ar
    20    26    27   ar
    21    27    28   ar
    22    28    31    1
    23    31    32   ar
    24    32    33   ar
    25    33    37    1
    26    37    38    1
    27    38    39    1
    28    39    40    1
    29    40    41    1
    30    41    42    1
    31    33    34   ar
    32    34    35   ar
    33    35    43    1
    34    43    44    1
    35    44    45    1
    36    45    46    1
    37    46    47    1
    38    47    48    1
    39    35    36   ar
    40    28    29   ar
    41    29    30   ar
    42    10    11   ar
    43    11    12   ar
    44    17    13    1
    45    12     7   ar
    46    30    25   ar
    47    36    31   ar
    48    42    37    1
    49    48    43    1
    50    20    23    1
    51    20    24    1
    52     1     5    1
    53     4     6    1
@<TRIPOS>MOLECULE
*****
 48 53 0 0 0
SMALL
GASTEIGER

@<TRIPOS>ATOM
      1 N         143.1692  139.2651  156.3371 N.am    1  UNL1       -0.2681
      2 C         143.0118  137.7887  156.5506 C.2     1  UNL1        0.3082
      3 O         142.6043  137.2646  157.8956 O.2     1  UNL1       -0.2522
      4 N         143.2619  136.8364  155.4189 N.am    1  UNL1       -0.2681
      5 H         143.4367  139.6090  155.4543 H       1  UNL1        0.1564
      6 H         143.5293  137.1804  154.5360 H       1  UNL1        0.1564
      7 C         142.4190  142.1219  159.7320 C.ar    1  UNL1        0.0537
      8 C         141.2722  141.6250  158.9026 C.ar    1  UNL1        0.0058
      9 C         141.5223  140.6728  157.7710 C.ar    1  UNL1        0.0149
     10 C         142.9192  140.2174  157.4688 C.ar    1  UNL1        0.0516
     11 C         144.0659  140.7143  158.2982 C.ar    1  UNL1        0.0149
     12 C         143.8158  141.6666  159.4298 C.ar    1  UNL1        0.0058
     13 C         141.5729  143.3729  163.4522 C.3     1  UNL1        0.1518
     14 C         141.2968  142.4374  164.5918 C.3     1  UNL1        0.0310
     15 C         141.3989  141.0332  164.0741 C.3     1  UNL1        0.0237
     16 C         141.7379  141.1009  162.6145 C.3     1  UNL1        0.0942
     17 N         141.8455  142.5469  162.2301 N.am    1  UNL1       -0.2695
     18 C         142.1689  143.0743  160.8637 C.2     1  UNL1        0.2493
     19 O         142.2422  144.5539  160.6288 O.2     1  UNL1       -0.2699
     20 N         140.3464  145.6423  163.1427 N.am    1  UNL1       -0.3275
     21 C         141.5758  144.8712  163.5224 C.2     1  UNL1        0.2375
     22 O         142.8081  145.5985  163.9722 O.2     1  UNL1       -0.2736
     23 H         140.3483  146.6257  163.1888 H       1  UNL1        0.1450
     24 H         139.5375  145.1649  162.8475 H       1  UNL1        0.1450
     25 C         143.1044  135.3601  155.6323 C.ar    1  UNL1        0.0516
     26 C         142.2476  134.5548  154.7010 C.ar    1  UNL1        0.0148
     27 C         142.0902  133.0784  154.9145 C.ar    1  UNL1        0.0043
     28 C         142.7896  132.4073  156.0593 C.ar    1  UNL1        0.0361
     29 C         143.6465  133.2126  156.9905 C.ar    1  UNL1        0.0043
     30 C         143.8039  134.6890  156.7770 C.ar    1  UNL1        0.0148
     31 C         142.6322  130.9310  156.2727 C.ar    1  UNL1        0.1680
     32 N         143.4911  130.2227  157.2780 N.ar    1  UNL1       -0.1944
     33 C         143.3337  128.7464  157.4915 C.ar    1  UNL1        0.2240
     34 N         142.3173  127.9782  156.6996 N.ar    1  UNL1       -0.1807
     35 C         141.4584  128.6865  155.6943 C.ar    1  UNL1        0.2240
     36 N         141.6159  130.1629  155.4809 N.ar    1  UNL1       -0.1944
     37 N         144.1926  128.0381  158.4967 N.pl3   1  UNL1       -0.2729
     38 C         145.2813  127.1152  158.0354 C.3     1  UNL1        0.1257
     39 C         146.1403  126.4070  159.0407 C.3     1  UNL1        0.1637
     40 O         145.9104  126.6216  160.5073 O.3     1  UNL1       -0.3501
     41 C         144.8216  127.5445  160.9688 C.3     1  UNL1        0.1637
     42 C         143.9627  128.2528  159.9635 C.3     1  UNL1        0.1257
     43 N         140.4421  127.9184  154.9024 N.pl3   1  UNL1       -0.2729
     44 C         140.6310  127.7249  153.4270 C.3     1  UNL1        0.1257
     45 C         139.6146  126.9568  152.6351 C.3     1  UNL1        0.1637
     46 O         138.4093  126.3823  153.3186 O.3     1  UNL1       -0.3501
     47 C         138.2204  126.5758  154.7940 C.3     1  UNL1        0.1637
     48 C         139.2368  127.3439  155.5859 C.3     1  UNL1        0.1257
@<TRIPOS>BOND
     1    20    21   am
     2    21    22    2
     3    13    21    1
     4    13    14    1
     5    14    15    1
     6    15    16    1
     7    16    17    1
     8    17    18   am
     9    18    19    2
    10    18     7    1
    11     7     8   ar
    12     8     9   ar
    13     9    10   ar
    14    10     1    1
    15     1     2   am
    16     2     3    2
    17     2     4   am
    18     4    25    1
    19    25    26   ar
    20    26    27   ar
    21    27    28   ar
    22    28    31    1
    23    31    32   ar
    24    32    33   ar
    25    33    37    1
    26    37    38    1
    27    38    39    1
    28    39    40    1
    29    40    41    1
    30    41    42    1
    31    33    34   ar
    32    34    35   ar
    33    35    43    1
    34    43    44    1
    35    44    45    1
    36    45    46    1
    37    46    47    1
    38    47    48    1
    39    35    36   ar
    40    28    29   ar
    41    29    30   ar
    42    10    11   ar
    43    11    12   ar
    44    17    13    1
    45    12     7   ar
    46    30    25   ar
    47    36    31   ar
    48    42    37    1
    49    48    43    1
    50    20    23    1
    51    20    24    1
    52     1     5    1
    53     4     6    1
@<TRIPOS>MOLECULE
*****
 48 53 0 0 0
SMALL
GASTEIGER

@<TRIPOS>ATOM
      1 N         137.9719  142.0518  162.8331 N.am    1  UNL1       -0.2681
      2 C         138.7631  141.5240  161.6733 C.2     1  UNL1        0.3082
      3 O         140.1799  141.0743  161.8744 O.2     1  UNL1       -0.2522
      4 N         138.1376  141.4459  160.3121 N.am    1  UNL1       -0.2681
      5 H         137.0420  142.3469  162.7011 H       1  UNL1        0.1564
      6 H         137.2077  141.7410  160.1801 H       1  UNL1        0.1564
      7 C         139.8485  142.2863  166.9164 C.ar    1  UNL1        0.0537
      8 C         139.7868  143.5078  166.0481 C.ar    1  UNL1        0.0058
      9 C         139.1613  143.4297  164.6871 C.ar    1  UNL1        0.0149
     10 C         138.5975  142.1299  164.1943 C.ar    1  UNL1        0.0516
     11 C         138.6592  140.9084  165.0626 C.ar    1  UNL1        0.0149
     12 C         139.2847  140.9866  166.4236 C.ar    1  UNL1        0.0058
     13 C         142.0695  141.2045  170.0815 C.3     1  UNL1        0.1518
     14 C         142.8653  139.9340  170.1324 C.3     1  UNL1        0.0310
     15 C         142.6639  139.2086  168.8350 C.3     1  UNL1        0.0237
     16 C         141.7436  140.0307  167.9823 C.3     1  UNL1        0.0942
     17 N         141.3763  141.2643  168.7526 N.am    1  UNL1       -0.2695
     18 C         140.4741  142.3644  168.2776 C.2     1  UNL1        0.2493
     19 O         140.1974  143.5427  169.1636 O.2     1  UNL1       -0.2699
     20 N         143.0181  143.3153  171.2626 N.am    1  UNL1       -0.3275
     21 C         141.9823  142.2344  171.1685 C.2     1  UNL1        0.2375
     22 O         140.8593  142.1834  172.1616 O.2     1  UNL1       -0.2736
     23 H         142.9608  143.9912  171.9761 H       1  UNL1        0.1450
     24 H         143.7552  143.3488  170.6109 H       1  UNL1        0.1450
     25 C         138.9288  140.9181  159.1522 C.ar    1  UNL1        0.0516
     26 C         139.0755  139.4383  158.9557 C.ar    1  UNL1        0.0148
     27 C         139.8667  138.9105  157.7959 C.ar    1  UNL1        0.0043
     28 C         140.5113  139.8625  156.8324 C.ar    1  UNL1        0.0361
     29 C         140.3647  141.3424  157.0289 C.ar    1  UNL1        0.0043
     30 C         139.5734  141.8701  158.1889 C.ar    1  UNL1        0.0148
     31 C         141.3026  139.3347  155.6726 C.ar    1  UNL1        0.1680
     32 N         142.3745  140.1791  155.0497 N.ar    1  UNL1       -0.1944
     33 C         143.1658  139.6513  153.8898 C.ar    1  UNL1        0.2240
     34 N         142.8850  138.2791  153.3528 N.ar    1  UNL1       -0.1807
     35 C         141.8130  137.4348  153.9756 C.ar    1  UNL1        0.2240
     36 N         141.0218  137.9626  155.1356 N.ar    1  UNL1       -0.1944
     37 N         144.2377  140.4956  153.2670 N.pl3   1  UNL1       -0.2729
     38 C         145.5066  139.8594  152.7821 C.3     1  UNL1        0.1257
     39 C         146.5786  140.7037  152.1592 C.3     1  UNL1        0.1637
     40 O         146.3817  142.1843  152.0212 O.3     1  UNL1       -0.3501
     41 C         145.1128  142.8206  152.5061 C.3     1  UNL1        0.1637
     42 C         144.0408  141.9763  153.1290 C.3     1  UNL1        0.1257
     43 N         141.5323  136.0626  153.4386 N.pl3   1  UNL1       -0.2729
     44 C         142.4042  134.9086  153.8364 C.3     1  UNL1        0.1257
     45 C         142.1234  133.5365  153.2994 C.3     1  UNL1        0.1637
     46 O         140.9708  133.3183  152.3646 O.3     1  UNL1       -0.3501
     47 C         140.0990  134.4722  151.9668 C.3     1  UNL1        0.1637
     48 C         140.3797  135.8445  152.5038 C.3     1  UNL1        0.1257
@<TRIPOS>BOND
     1    20    21   am
     2    21    22    2
     3    13    21    1
     4    13    14    1
     5    14    15    1
     6    15    16    1
     7    16    17    1
     8    17    18   am
     9    18    19    2
    10    18     7    1
    11     7     8   ar
    12     8     9   ar
    13     9    10   ar
    14    10     1    1
    15     1     2   am
    16     2     3    2
    17     2     4   am
    18     4    25    1
    19    25    26   ar
    20    26    27   ar
    21    27    28   ar
    22    28    31    1
    23    31    32   ar
    24    32    33   ar
    25    33    37    1
    26    37    38    1
    27    38    39    1
    28    39    40    1
    29    40    41    1
    30    41    42    1
    31    33    34   ar
    32    34    35   ar
    33    35    43    1
    34    43    44    1
    35    44    45    1
    36    45    46    1
    37    46    47    1
    38    47    48    1
    39    35    36   ar
    40    28    29   ar
    41    29    30   ar
    42    10    11   ar
    43    11    12   ar
    44    17    13    1
    45    12     7   ar
    46    30    25   ar
    47    36    31   ar
    48    42    37    1
    49    48    43    1
    50    20    23    1
    51    20    24    1
    52     1     5    1
    53     4     6    1
@<TRIPOS>MOLECULE
*****
 48 53 0 0 0
SMALL
GASTEIGER

@<TRIPOS>ATOM
      1 N         137.5649  140.7548  163.1528 N.am    1  UNL1       -0.2681
      2 C         138.3705  140.3757  161.9457 C.2     1  UNL1        0.3082
      3 O         139.8645  140.2808  162.0407 O.2     1  UNL1       -0.2522
      4 N         137.6822  140.0914  160.6436 N.am    1  UNL1       -0.2681
      5 H         136.5843  140.8170  163.0905 H       1  UNL1        0.1564
      6 H         136.7017  140.1537  160.5812 H       1  UNL1        0.1564
      7 C         139.6298  141.6075  167.0591 C.ar    1  UNL1        0.0537
      8 C         139.5870  142.6573  165.9886 C.ar    1  UNL1        0.0058
      9 C         138.8987  142.3731  164.6865 C.ar    1  UNL1        0.0149
     10 C         138.2532  141.0390  164.4550 C.ar    1  UNL1        0.0516
     11 C         138.2960  139.9892  165.5255 C.ar    1  UNL1        0.0149
     12 C         138.9843  140.2735  166.8275 C.ar    1  UNL1        0.0058
     13 C         142.1083  141.0831  170.1739 C.3     1  UNL1        0.1518
     14 C         143.0189  139.8990  170.3103 C.3     1  UNL1        0.0310
     15 C         142.8153  139.0173  169.1140 C.3     1  UNL1        0.0237
     16 C         141.7787  139.6565  168.2383 C.3     1  UNL1        0.0942
     17 N         141.3418  140.9332  168.8933 N.am    1  UNL1       -0.2695
     18 C         140.3181  141.8918  168.3612 C.2     1  UNL1        0.2493
     19 O         139.9827  143.1346  169.1312 O.2     1  UNL1       -0.2699
     20 N         142.9541  143.3620  171.0913 N.am    1  UNL1       -0.3275
     21 C         141.9857  142.2178  171.1473 C.2     1  UNL1        0.2375
     22 O         140.8948  142.2083  172.1767 O.2     1  UNL1       -0.2736
     23 H         142.8736  144.1067  171.7301 H       1  UNL1        0.1450
     24 H         143.6701  143.3683  170.4156 H       1  UNL1        0.1450
     25 C         138.4879  139.7123  159.4365 C.ar    1  UNL1        0.0516
     26 C         138.4343  140.5624  158.2018 C.ar    1  UNL1        0.0148
     27 C         139.2400  140.1833  156.9947 C.ar    1  UNL1        0.0043
     28 C         140.0993  138.9540  157.0222 C.ar    1  UNL1        0.0361
     29 C         140.1529  138.1040  158.2569 C.ar    1  UNL1        0.0043
     30 C         139.3471  138.4831  159.4641 C.ar    1  UNL1        0.0148
     31 C         140.9049  138.5749  155.8151 C.ar    1  UNL1        0.1680
     32 N         140.8228  137.1815  155.2660 N.ar    1  UNL1       -0.1944
     33 C         141.6285  136.8024  154.0589 C.ar    1  UNL1        0.2240
     34 N         142.5163  137.8167  153.4009 N.ar    1  UNL1       -0.1807
     35 C         142.5984  139.2102  153.9500 C.ar    1  UNL1        0.2240
     36 N         141.7927  139.5893  155.1572 N.ar    1  UNL1       -0.1944
     37 N         141.5464  135.4089  153.5097 N.pl3   1  UNL1       -0.2729
     38 C         142.5319  134.3687  153.9533 C.3     1  UNL1        0.1257
     39 C         142.4498  132.9753  153.4041 C.3     1  UNL1        0.1637
     40 O         141.3822  132.6220  152.4114 O.3     1  UNL1       -0.3501
     41 C         140.3967  133.6622  151.9679 C.3     1  UNL1        0.1637
     42 C         140.4787  135.0557  152.5170 C.3     1  UNL1        0.1257
     43 N         143.4862  140.2245  153.2921 N.pl3   1  UNL1       -0.2729
     44 C         143.0067  141.6340  153.1081 C.3     1  UNL1        0.1257
     45 C         143.8945  142.6483  152.4502 C.3     1  UNL1        0.1637
     46 O         145.2617  142.2533  151.9761 O.3     1  UNL1       -0.3501
     47 C         145.7411  140.8440  152.1600 C.3     1  UNL1        0.1637
     48 C         144.8534  139.8295  152.8180 C.3     1  UNL1        0.1257
@<TRIPOS>BOND
     1    20    21   am
     2    21    22    2
     3    13    21    1
     4    13    14    1
     5    14    15    1
     6    15    16    1
     7    16    17    1
     8    17    18   am
     9    18    19    2
    10    18     7    1
    11     7     8   ar
    12     8     9   ar
    13     9    10   ar
    14    10     1    1
    15     1     2   am
    16     2     3    2
    17     2     4   am
    18     4    25    1
    19    25    26   ar
    20    26    27   ar
    21    27    28   ar
    22    28    31    1
    23    31    32   ar
    24    32    33   ar
    25    33    37    1
    26    37    38    1
    27    38    39    1
    28    39    40    1
    29    40    41    1
    30    41    42    1
    31    33    34   ar
    32    34    35   ar
    33    35    43    1
    34    43    44    1
    35    44    45    1
    36    45    46    1
    37    46    47    1
    38    47    48    1
    39    35    36   ar
    40    28    29   ar
    41    29    30   ar
    42    10    11   ar
    43    11    12   ar
    44    17    13    1
    45    12     7   ar
    46    30    25   ar
    47    36    31   ar
    48    42    37    1
    49    48    43    1
    50    20    23    1
    51    20    24    1
    52     1     5    1
    53     4     6    1
@<TRIPOS>MOLECULE
*****
 48 53 0 0 0
SMALL
GASTEIGER

@<TRIPOS>ATOM
      1 N         142.0881  137.7511  162.8883 N.am    1  UNL1       -0.2681
      2 C         141.7467  138.5973  161.6978 C.2     1  UNL1        0.3082
      3 O         141.2669  140.0053  161.8912 O.2     1  UNL1       -0.2522
      4 N         141.8851  138.0356  160.3138 N.am    1  UNL1       -0.2681
      5 H         142.4030  136.8270  162.7613 H       1  UNL1        0.1564
      6 H         142.2000  137.1115  160.1868 H       1  UNL1        0.1564
      7 C         141.6730  139.4362  167.0402 C.ar    1  UNL1        0.0537
      8 C         143.0263  139.3448  166.3997 C.ar    1  UNL1        0.0058
      9 C         143.1646  138.7831  165.0158 C.ar    1  UNL1        0.0149
     10 C         141.9497  138.3128  164.2723 C.ar    1  UNL1        0.0516
     11 C         140.5964  138.4042  164.9127 C.ar    1  UNL1        0.0149
     12 C         140.4581  138.9658  166.2967 C.ar    1  UNL1        0.0058
     13 C         140.8202  142.0832  169.9361 C.3     1  UNL1        0.1518
     14 C         140.2799  143.4556  169.6631 C.3     1  UNL1        0.0310
     15 C         140.1383  143.6111  168.1779 C.3     1  UNL1        0.0237
     16 C         140.5910  142.3347  167.5330 C.3     1  UNL1        0.0942
     17 N         141.0125  141.3904  168.6197 N.am    1  UNL1       -0.2695
     18 C         141.5346  139.9979  168.4242 C.2     1  UNL1        0.2493
     19 O         141.9182  139.1670  169.6126 O.2     1  UNL1       -0.2699
     20 N         140.3835  140.2836  171.7585 N.am    1  UNL1       -0.3275
     21 C         141.1162  141.5051  171.2882 C.2     1  UNL1        0.2375
     22 O         142.1449  142.1484  172.1701 O.2     1  UNL1       -0.2736
     23 H         140.5778  139.9042  172.6459 H       1  UNL1        0.1450
     24 H         139.7082  139.8613  171.1797 H       1  UNL1        0.1450
     25 C         141.5437  138.8818  159.1233 C.ar    1  UNL1        0.0516
     26 C         142.6073  139.7037  158.4575 C.ar    1  UNL1        0.0148
     27 C         142.2659  140.5499  157.2670 C.ar    1  UNL1        0.0043
     28 C         140.8608  140.5743  156.7423 C.ar    1  UNL1        0.0361
     29 C         139.7972  139.7525  157.4082 C.ar    1  UNL1        0.0043
     30 C         140.1387  138.9062  158.5987 C.ar    1  UNL1        0.0148
     31 C         140.5194  141.4206  155.5518 C.ar    1  UNL1        0.1680
     32 N         141.5550  142.3257  154.9533 N.ar    1  UNL1       -0.1944
     33 C         141.2136  143.1720  153.7628 C.ar    1  UNL1        0.2240
     34 N         139.8365  143.1131  153.1708 N.ar    1  UNL1       -0.1807
     35 C         138.8009  142.2079  153.7694 C.ar    1  UNL1        0.2240
     36 N         139.1424  141.3616  154.9599 N.ar    1  UNL1       -0.1944
     37 N         142.2491  144.0771  153.1642 N.pl3   1  UNL1       -0.2729
     38 C         142.0085  145.5565  153.1056 C.3     1  UNL1        0.1257
     39 C         143.0441  146.4617  152.5070 C.3     1  UNL1        0.1637
     40 O         144.3203  145.8874  151.9671 O.3     1  UNL1       -0.3501
     41 C         144.5609  144.4080  152.0257 C.3     1  UNL1        0.1637
     42 C         143.5254  143.5028  152.6243 C.3     1  UNL1        0.1257
     43 N         137.4240  142.1490  153.1775 N.pl3   1  UNL1       -0.2729
     44 C         136.8203  143.3751  152.5591 C.3     1  UNL1        0.1257
     45 C         135.4433  143.3161  151.9671 C.3     1  UNL1        0.1637
     46 O         134.6699  142.0312  151.9936 O.3     1  UNL1       -0.3501
     47 C         135.2735  140.8051  152.6120 C.3     1  UNL1        0.1637
     48 C         136.6506  140.8640  153.2039 C.3     1  UNL1        0.1257
@<TRIPOS>BOND
     1    20    21   am
     2    21    22    2
     3    13    21    1
     4    13    14    1
     5    14    15    1
     6    15    16    1
     7    16    17    1
     8    17    18   am
     9    18    19    2
    10    18     7    1
    11     7     8   ar
    12     8     9   ar
    13     9    10   ar
    14    10     1    1
    15     1     2   am
    16     2     3    2
    17     2     4   am
    18     4    25    1
    19    25    26   ar
    20    26    27   ar
    21    27    28   ar
    22    28    31    1
    23    31    32   ar
    24    32    33   ar
    25    33    37    1
    26    37    38    1
    27    38    39    1
    28    39    40    1
    29    40    41    1
    30    41    42    1
    31    33    34   ar
    32    34    35   ar
    33    35    43    1
    34    43    44    1
    35    44    45    1
    36    45    46    1
    37    46    47    1
    38    47    48    1
    39    35    36   ar
    40    28    29   ar
    41    29    30   ar
    42    10    11   ar
    43    11    12   ar
    44    17    13    1
    45    12     7   ar
    46    30    25   ar
    47    36    31   ar
    48    42    37    1
    49    48    43    1
    50    20    23    1
    51    20    24    1
    52     1     5    1
    53     4     6    1
@<TRIPOS>MOLECULE
*****
 48 53 0 0 0
SMALL
GASTEIGER

@<TRIPOS>ATOM
      1 N         142.8916  139.2794  157.0108 N.am    1  UNL1       -0.2681
      2 C         142.7288  137.7896  157.0732 C.2     1  UNL1        0.3082
      3 O         141.8819  137.1719  158.1462 O.2     1  UNL1       -0.2522
      4 N         143.4128  136.9173  156.0625 N.am    1  UNL1       -0.2681
      5 H         143.4475  139.6847  156.3066 H       1  UNL1        0.1564
      6 H         143.9687  137.3227  155.3583 H       1  UNL1        0.1564
      7 C         140.8395  141.8960  160.0426 C.ar    1  UNL1        0.0537
      8 C         140.1415  141.5411  158.7632 C.ar    1  UNL1        0.0058
      9 C         140.8255  140.6689  157.7527 C.ar    1  UNL1        0.0149
     10 C         142.2076  140.1516  158.0214 C.ar    1  UNL1        0.0516
     11 C         142.9056  140.5065  159.3008 C.ar    1  UNL1        0.0149
     12 C         142.2216  141.3787  160.3113 C.ar    1  UNL1        0.0058
     13 C         138.6694  142.8875  163.2718 C.3     1  UNL1        0.1518
     14 C         138.0597  141.8753  164.1958 C.3     1  UNL1        0.0310
     15 C         138.4132  140.5097  163.6854 C.3     1  UNL1        0.0237
     16 C         139.2413  140.6781  162.4461 C.3     1  UNL1        0.0942
     17 N         139.3996  142.1476  162.1905 N.am    1  UNL1       -0.2695
     18 C         140.1555  142.7683  161.0532 C.2     1  UNL1        0.2493
     19 O         140.2273  144.2612  160.9265 O.2     1  UNL1       -0.2699
     20 N         139.3034  145.0848  164.5048 N.am    1  UNL1       -0.3275
     21 C         138.5668  144.3780  163.4057 C.2     1  UNL1        0.2375
     22 O         137.7277  145.1617  162.4405 O.2     1  UNL1       -0.2736
     23 H         139.2360  146.0631  164.5927 H       1  UNL1        0.1450
     24 H         139.8541  144.5705  165.1384 H       1  UNL1        0.1450
     25 C         143.2500  135.4275  156.1249 C.ar    1  UNL1        0.0516
     26 C         143.6214  134.6840  157.3736 C.ar    1  UNL1        0.0148
     27 C         143.4586  133.1943  157.4360 C.ar    1  UNL1        0.0043
     28 C         142.9242  132.4478  156.2496 C.ar    1  UNL1        0.0361
     29 C         142.5527  133.1913  155.0009 C.ar    1  UNL1        0.0043
     30 C         142.7156  134.6812  154.9386 C.ar    1  UNL1        0.0148
     31 C         142.7613  130.9580  156.3120 C.ar    1  UNL1        0.1680
     32 N         142.0159  130.2390  155.2270 N.ar    1  UNL1       -0.1944
     33 C         141.8531  128.7492  155.2893 C.ar    1  UNL1        0.2240
     34 N         142.4356  127.9784  156.4368 N.ar    1  UNL1       -0.1807
     35 C         143.1810  128.6975  157.5219 C.ar    1  UNL1        0.2240
     36 N         143.3438  130.1873  157.4594 N.ar    1  UNL1       -0.1944
     37 N         141.1077  128.0301  154.2043 N.pl3   1  UNL1       -0.2729
     38 C         139.6134  127.9167  154.2691 C.3     1  UNL1        0.1257
     39 C         138.8680  127.1977  153.1840 C.3     1  UNL1        0.1637
     40 O         139.6169  126.5919  152.0342 O.3     1  UNL1       -0.3501
     41 C         141.1113  126.7052  151.9694 C.3     1  UNL1        0.1637
     42 C         141.8567  127.4243  153.0544 C.3     1  UNL1        0.1257
     43 N         143.7635  127.9268  158.6693 N.pl3   1  UNL1       -0.2729
     44 C         142.8597  127.3231  159.7032 C.3     1  UNL1        0.1257
     45 C         143.4422  126.5524  160.8506 C.3     1  UNL1        0.1637
     46 O         144.9285  126.3853  160.9642 O.3     1  UNL1       -0.3501
     47 C         145.8323  126.9889  159.9304 C.3     1  UNL1        0.1637
     48 C         145.2498  127.7596  158.7829 C.3     1  UNL1        0.1257
@<TRIPOS>BOND
     1    20    21   am
     2    21    22    2
     3    13    21    1
     4    13    14    1
     5    14    15    1
     6    15    16    1
     7    16    17    1
     8    17    18   am
     9    18    19    2
    10    18     7    1
    11     7     8   ar
    12     8     9   ar
    13     9    10   ar
    14    10     1    1
    15     1     2   am
    16     2     3    2
    17     2     4   am
    18     4    25    1
    19    25    26   ar
    20    26    27   ar
    21    27    28   ar
    22    28    31    1
    23    31    32   ar
    24    32    33   ar
    25    33    37    1
    26    37    38    1
    27    38    39    1
    28    39    40    1
    29    40    41    1
    30    41    42    1
    31    33    34   ar
    32    34    35   ar
    33    35    43    1
    34    43    44    1
    35    44    45    1
    36    45    46    1
    37    46    47    1
    38    47    48    1
    39    35    36   ar
    40    28    29   ar
    41    29    30   ar
    42    10    11   ar
    43    11    12   ar
    44    17    13    1
    45    12     7   ar
    46    30    25   ar
    47    36    31   ar
    48    42    37    1
    49    48    43    1
    50    20    23    1
    51    20    24    1
    52     1     5    1
    53     4     6    1
