@<TRIPOS>MOLECULE
*****
 24 27 0 0 0
SMALL
GASTEIGER

@<TRIPOS>ATOM
      1 O         138.1914  140.0551  170.1872 O.2     1  UNL1       -0.2699
      2 C         139.2849  140.3256  169.1967 C.2     1  UNL1        0.2493
      3 N         139.2227  139.7183  167.8265 N.am    1  UNL1       -0.2698
      4 C         138.0672  138.8405  167.4469 C.3     1  UNL1        0.1021
      5 C         138.0051  138.2332  166.0768 C.3     1  UNL1        0.0874
      6 C         139.0985  138.5037  165.0863 C.ar    1  UNL1        0.1415
      7 O         139.3077  138.0475  163.6726 O.2     1  UNL1       -0.4380
      8 C         140.5926  138.6434  163.1786 C.ar    1  UNL1        0.2471
      9 N         141.1774  139.4679  164.2869 N.ar    1  UNL1       -0.2100
     10 C         140.2541  139.3815  165.4658 C.ar    1  UNL1        0.1124
     11 C         140.3162  139.9888  166.8360 C.3     1  UNL1        0.1425
     12 C         141.1881  138.4489  161.8156 C.ar    1  UNL1        0.1348
     13 C         142.5877  137.9278  161.6761 C.ar    1  UNL1        0.0262
     14 C         143.1832  137.7334  160.3132 C.ar    1  UNL1        0.0329
     15 C         142.3791  138.0601  159.0899 C.ar    1  UNL1        0.1592
     16 F         142.9745  137.8656  157.7269 F       1  UNL1       -0.2025
     17 C         140.9794  138.5812  159.2294 C.ar    1  UNL1        0.1285
     18 N         140.3839  138.7756  160.5923 N.ar    1  UNL1       -0.2368
     19 C         140.4404  141.2035  169.5763 C.ar    1  UNL1        0.0536
     20 C         140.2707  142.6934  169.6110 C.ar    1  UNL1        0.0045
     21 C         141.4263  143.5712  169.9906 C.ar    1  UNL1        0.0001
     22 C         142.7516  142.9591  170.3355 C.ar    1  UNL1        0.0000
     23 C         142.9213  141.4691  170.3007 C.ar    1  UNL1        0.0001
     24 C         141.7657  140.5913  169.9211 C.ar    1  UNL1        0.0045
@<TRIPOS>BOND
     1     1     2    2
     2     2    19    1
     3    19    20   ar
     4    20    21   ar
     5    21    22   ar
     6    22    23   ar
     7    23    24   ar
     8     2     3   am
     9     3     4    1
    10     4     5    1
    11     5     6    1
    12     6     7   ar
    13     7     8   ar
    14     8    12    1
    15    12    13   ar
    16    13    14   ar
    17    14    15   ar
    18    15    16    1
    19    15    17   ar
    20    17    18   ar
    21     8     9   ar
    22     9    10   ar
    23    10    11    1
    24    24    19   ar
    25    11     3    1
    26    10     6   ar
    27    18    12   ar
@<TRIPOS>MOLECULE
*****
 24 27 0 0 0
SMALL
GASTEIGER

@<TRIPOS>ATOM
      1 O         142.6208  140.7270  167.4103 O.2     1  UNL1       -0.2699
      2 C         141.8329  140.7522  166.1341 C.2     1  UNL1        0.2493
      3 N         142.1675  141.7506  165.0658 N.am    1  UNL1       -0.2698
      4 C         143.2899  142.7237  165.2736 C.3     1  UNL1        0.1021
      5 C         143.6244  143.7220  164.2052 C.3     1  UNL1        0.0874
      6 C         142.8365  143.7473  162.9291 C.ar    1  UNL1        0.1415
      7 O         142.9344  144.6101  161.7059 O.2     1  UNL1       -0.4380
      8 C         141.8725  144.1702  160.7422 C.ar    1  UNL1        0.2471
      9 N         141.1182  143.0356  161.3697 N.ar    1  UNL1       -0.2100
     10 C         141.7140  142.7742  162.7213 C.ar    1  UNL1        0.1124
     11 C         141.3795  141.7759  163.7896 C.3     1  UNL1        0.1425
     12 C         141.6106  144.7612  159.3886 C.ar    1  UNL1        0.1348
     13 C         140.3094  145.4540  159.1116 C.ar    1  UNL1        0.0262
     14 C         140.0475  146.0450  157.7581 C.ar    1  UNL1        0.0329
     15 C         141.0870  145.9431  156.6815 C.ar    1  UNL1        0.1592
     16 F         140.8252  146.5341  155.3278 F       1  UNL1       -0.2025
     17 C         142.3882  145.2503  156.9584 C.ar    1  UNL1        0.1285
     18 N         142.6501  144.6594  158.3119 N.ar    1  UNL1       -0.2368
     19 C         140.7105  139.7792  165.9263 C.ar    1  UNL1        0.0536
     20 C         139.3883  140.0047  166.5980 C.ar    1  UNL1        0.0045
     21 C         138.2658  139.0316  166.3901 C.ar    1  UNL1        0.0001
     22 C         138.4656  137.8330  165.5107 C.ar    1  UNL1        0.0000
     23 C         139.7877  137.6074  164.8391 C.ar    1  UNL1        0.0001
     24 C         140.9101  138.5805  165.0469 C.ar    1  UNL1        0.0045
@<TRIPOS>BOND
     1     1     2    2
     2     2    19    1
     3    19    20   ar
     4    20    21   ar
     5    21    22   ar
     6    22    23   ar
     7    23    24   ar
     8     2     3   am
     9     3     4    1
    10     4     5    1
    11     5     6    1
    12     6     7   ar
    13     7     8   ar
    14     8    12    1
    15    12    13   ar
    16    13    14   ar
    17    14    15   ar
    18    15    16    1
    19    15    17   ar
    20    17    18   ar
    21     8     9   ar
    22     9    10   ar
    23    10    11    1
    24    24    19   ar
    25    11     3    1
    26    10     6   ar
    27    18    12   ar
@<TRIPOS>MOLECULE
*****
 24 27 0 0 0
SMALL
GASTEIGER

@<TRIPOS>ATOM
      1 O         138.8929  139.5090  168.4782 O.2     1  UNL1       -0.2699
      2 C         139.7449  140.5417  167.8018 C.2     1  UNL1        0.2493
      3 N         139.5671  140.8192  166.3384 N.am    1  UNL1       -0.2698
      4 C         138.5374  140.0640  165.5515 C.3     1  UNL1        0.1021
      5 C         138.3597  140.3415  164.0882 C.3     1  UNL1        0.0874
      6 C         139.2116  141.3743  163.4118 C.ar    1  UNL1        0.1415
      7 O         139.2636  141.8604  161.9936 O.2     1  UNL1       -0.4380
      8 C         140.3255  142.9160  161.9041 C.ar    1  UNL1        0.2471
      9 N         140.9297  143.0824  163.2669 N.ar    1  UNL1       -0.2100
     10 C         140.2413  142.1295  164.1987 C.ar    1  UNL1        0.1124
     11 C         140.4191  141.8520  165.6620 C.3     1  UNL1        0.1425
     12 C         140.7148  143.6726  160.6687 C.ar    1  UNL1        0.1348
     13 C         141.9343  143.2681  159.8946 C.ar    1  UNL1        0.0262
     14 C         142.3236  144.0245  158.6593 C.ar    1  UNL1        0.0329
     15 C         141.4934  145.1855  158.1979 C.ar    1  UNL1        0.1592
     16 F         141.8827  145.9420  156.9625 F       1  UNL1       -0.2025
     17 C         140.2738  145.5900  158.9720 C.ar    1  UNL1        0.1285
     18 N         139.8845  144.8335  160.2073 N.ar    1  UNL1       -0.2368
     19 C         140.7746  141.2970  168.5887 C.ar    1  UNL1        0.0536
     20 C         140.4311  142.6269  169.1915 C.ar    1  UNL1        0.0045
     21 C         141.4609  143.3821  169.9784 C.ar    1  UNL1        0.0001
     22 C         142.8341  142.8075  170.1625 C.ar    1  UNL1        0.0000
     23 C         143.1777  141.4776  169.5597 C.ar    1  UNL1        0.0001
     24 C         142.1479  140.7223  168.7728 C.ar    1  UNL1        0.0045
@<TRIPOS>BOND
     1     1     2    2
     2     2    19    1
     3    19    20   ar
     4    20    21   ar
     5    21    22   ar
     6    22    23   ar
     7    23    24   ar
     8     2     3   am
     9     3     4    1
    10     4     5    1
    11     5     6    1
    12     6     7   ar
    13     7     8   ar
    14     8    12    1
    15    12    13   ar
    16    13    14   ar
    17    14    15   ar
    18    15    16    1
    19    15    17   ar
    20    17    18   ar
    21     8     9   ar
    22     9    10   ar
    23    10    11    1
    24    24    19   ar
    25    11     3    1
    26    10     6   ar
    27    18    12   ar
@<TRIPOS>MOLECULE
*****
 24 27 0 0 0
SMALL
GASTEIGER

@<TRIPOS>ATOM
      1 O         143.3135  138.6450  168.1578 O.2     1  UNL1       -0.2699
      2 C         142.6231  139.8381  167.5663 C.2     1  UNL1        0.2493
      3 N         142.8282  140.1832  166.1210 N.am    1  UNL1       -0.2698
      4 C         143.7237  139.3351  165.2672 C.3     1  UNL1        0.1021
      5 C         143.9287  139.6802  163.8219 C.3     1  UNL1        0.0874
      6 C         143.2383  140.8733  163.2304 C.ar    1  UNL1        0.1415
      7 O         143.2486  141.4558  161.8481 O.2     1  UNL1       -0.4380
      8 C         142.3595  142.6638  161.8477 C.ar    1  UNL1        0.2471
      9 N         141.7997  142.8279  163.2296 N.ar    1  UNL1       -0.2100
     10 C         142.3429  141.7213  164.0842 C.ar    1  UNL1        0.1124
     11 C         142.1378  141.3763  165.5295 C.3     1  UNL1        0.1425
     12 C         142.0792  143.5519  160.6717 C.ar    1  UNL1        0.1348
     13 C         140.9425  144.5293  160.7240 C.ar    1  UNL1        0.0262
     14 C         140.6623  145.4173  159.5481 C.ar    1  UNL1        0.0329
     15 C         141.5187  145.3281  158.3199 C.ar    1  UNL1        0.1592
     16 F         141.2385  146.2162  157.1440 F       1  UNL1       -0.2025
     17 C         142.6554  144.3508  158.2676 C.ar    1  UNL1        0.1285
     18 N         142.9357  143.4627  159.4435 N.ar    1  UNL1       -0.2368
     19 C         141.7277  140.6862  168.4201 C.ar    1  UNL1        0.0536
     20 C         142.2073  142.0171  168.9188 C.ar    1  UNL1        0.0045
     21 C         141.3117  142.8651  169.7726 C.ar    1  UNL1        0.0001
     22 C         139.9367  142.3822  170.1277 C.ar    1  UNL1        0.0000
     23 C         139.4572  141.0513  169.6290 C.ar    1  UNL1        0.0001
     24 C         140.3526  140.2033  168.7752 C.ar    1  UNL1        0.0045
@<TRIPOS>BOND
     1     1     2    2
     2     2    19    1
     3    19    20   ar
     4    20    21   ar
     5    21    22   ar
     6    22    23   ar
     7    23    24   ar
     8     2     3   am
     9     3     4    1
    10     4     5    1
    11     5     6    1
    12     6     7   ar
    13     7     8   ar
    14     8    12    1
    15    12    13   ar
    16    13    14   ar
    17    14    15   ar
    18    15    16    1
    19    15    17   ar
    20    17    18   ar
    21     8     9   ar
    22     9    10   ar
    23    10    11    1
    24    24    19   ar
    25    11     3    1
    26    10     6   ar
    27    18    12   ar
@<TRIPOS>MOLECULE
*****
 24 27 0 0 0
SMALL
GASTEIGER

@<TRIPOS>ATOM
      1 O         141.2340  142.9548  166.1995 O.2     1  UNL1       -0.2699
      2 C         141.7977  142.8374  164.8144 C.2     1  UNL1        0.2493
      3 N         141.2118  143.6462  163.6951 N.am    1  UNL1       -0.2698
      4 C         140.0623  144.5723  163.9610 C.3     1  UNL1        0.1021
      5 C         139.4764  145.3810  162.8417 C.3     1  UNL1        0.0874
      6 C         140.0402  145.2636  161.4567 C.ar    1  UNL1        0.1415
      7 O         139.6727  145.9295  160.1637 O.2     1  UNL1       -0.4380
      8 C         140.5952  145.4148  159.0988 C.ar    1  UNL1        0.2471
      9 N         141.5328  144.4309  159.7336 N.ar    1  UNL1       -0.2100
     10 C         141.1897  144.3375  161.1908 C.ar    1  UNL1        0.1124
     11 C         141.7755  143.5287  162.3101 C.3     1  UNL1        0.1425
     12 C         140.5825  145.8139  157.6529 C.ar    1  UNL1        0.1348
     13 C         141.6213  145.2723  156.7161 C.ar    1  UNL1        0.0262
     14 C         141.6086  145.6714  155.2703 C.ar    1  UNL1        0.0329
     15 C         140.5571  146.6121  154.7612 C.ar    1  UNL1        0.1592
     16 F         140.5443  147.0112  153.3152 F       1  UNL1       -0.2025
     17 C         139.5182  147.1537  155.6979 C.ar    1  UNL1        0.1285
     18 N         139.5309  146.7546  157.1437 N.ar    1  UNL1       -0.2368
     19 C         142.9472  141.9112  164.5485 C.ar    1  UNL1        0.0536
     20 C         142.7068  140.4367  164.4140 C.ar    1  UNL1        0.0045
     21 C         143.8565  139.5106  164.1481 C.ar    1  UNL1        0.0001
     22 C         145.2465  140.0589  164.0168 C.ar    1  UNL1        0.0000
     23 C         145.4869  141.5334  164.1514 C.ar    1  UNL1        0.0001
     24 C         144.3373  142.4595  164.4173 C.ar    1  UNL1        0.0045
@<TRIPOS>BOND
     1     1     2    2
     2     2    19    1
     3    19    20   ar
     4    20    21   ar
     5    21    22   ar
     6    22    23   ar
     7    23    24   ar
     8     2     3   am
     9     3     4    1
    10     4     5    1
    11     5     6    1
    12     6     7   ar
    13     7     8   ar
    14     8    12    1
    15    12    13   ar
    16    13    14   ar
    17    14    15   ar
    18    15    16    1
    19    15    17   ar
    20    17    18   ar
    21     8     9   ar
    22     9    10   ar
    23    10    11    1
    24    24    19   ar
    25    11     3    1
    26    10     6   ar
    27    18    12   ar
@<TRIPOS>MOLECULE
*****
 24 27 0 0 0
SMALL
GASTEIGER

@<TRIPOS>ATOM
      1 O         138.0649  144.7582  165.1990 O.2     1  UNL1       -0.2699
      2 C         138.9272  143.7369  164.5183 C.2     1  UNL1        0.2493
      3 N         139.6453  144.0877  163.2488 N.am    1  UNL1       -0.2698
      4 C         139.5010  145.4597  162.6601 C.3     1  UNL1        0.1021
      5 C         140.2191  145.8104  161.3908 C.3     1  UNL1        0.0874
      6 C         141.0813  144.7890  160.7101 C.ar    1  UNL1        0.1415
      7 O         141.9045  144.8449  159.4573 O.2     1  UNL1       -0.4380
      8 C         142.5575  143.5073  159.2718 C.ar    1  UNL1        0.2471
      9 N         142.1379  142.6248  160.4099 N.ar    1  UNL1       -0.2100
     10 C         141.2256  143.4170  161.2988 C.ar    1  UNL1        0.1124
     11 C         140.5075  143.0663  162.5681 C.3     1  UNL1        0.1425
     12 C         143.4699  143.1200  158.1459 C.ar    1  UNL1        0.1348
     13 C         143.0164  143.2782  156.7248 C.ar    1  UNL1        0.0262
     14 C         143.9288  142.8910  155.5990 C.ar    1  UNL1        0.0329
     15 C         145.2946  142.3456  155.8941 C.ar    1  UNL1        0.1592
     16 F         146.2070  141.9584  154.7682 F       1  UNL1       -0.2025
     17 C         145.7480  142.1875  157.3152 C.ar    1  UNL1        0.1285
     18 N         144.8357  142.5747  158.4410 N.ar    1  UNL1       -0.2368
     19 C         139.0714  142.3648  165.1070 C.ar    1  UNL1        0.0536
     20 C         138.1462  141.2642  164.6796 C.ar    1  UNL1        0.0045
     21 C         138.2905  139.8921  165.2683 C.ar    1  UNL1        0.0001
     22 C         139.3599  139.6207  166.2844 C.ar    1  UNL1        0.0000
     23 C         140.2851  140.7212  166.7119 C.ar    1  UNL1        0.0001
     24 C         140.1409  142.0933  166.1232 C.ar    1  UNL1        0.0045
@<TRIPOS>BOND
     1     1     2    2
     2     2    19    1
     3    19    20   ar
     4    20    21   ar
     5    21    22   ar
     6    22    23   ar
     7    23    24   ar
     8     2     3   am
     9     3     4    1
    10     4     5    1
    11     5     6    1
    12     6     7   ar
    13     7     8   ar
    14     8    12    1
    15    12    13   ar
    16    13    14   ar
    17    14    15   ar
    18    15    16    1
    19    15    17   ar
    20    17    18   ar
    21     8     9   ar
    22     9    10   ar
    23    10    11    1
    24    24    19   ar
    25    11     3    1
    26    10     6   ar
    27    18    12   ar
@<TRIPOS>MOLECULE
*****
 24 27 0 0 0
SMALL
GASTEIGER

@<TRIPOS>ATOM
      1 O         143.2925  138.6321  168.1519 O.2     1  UNL1       -0.2699
      2 C         142.2900  139.5413  167.5049 C.2     1  UNL1        0.2493
      3 N         142.0728  139.4838  166.0218 N.am    1  UNL1       -0.2698
      4 C         142.8580  138.5172  165.1857 C.3     1  UNL1        0.1021
      5 C         142.6408  138.4598  163.7027 C.3     1  UNL1        0.0874
      6 C         141.6384  139.3690  163.0557 C.ar    1  UNL1        0.1415
      7 O         141.2113  139.5379  161.6277 O.2     1  UNL1       -0.4380
      8 C         140.1621  140.6089  161.5813 C.ar    1  UNL1        0.2471
      9 N         139.9408  141.1019  162.9806 N.ar    1  UNL1       -0.2100
     10 C         140.8531  140.3355  163.8918 C.ar    1  UNL1        0.1124
     11 C         141.0704  140.3930  165.3749 C.3     1  UNL1        0.1425
     12 C         139.4579  141.1007  160.3515 C.ar    1  UNL1        0.1348
     13 C         139.6486  142.5163  159.8936 C.ar    1  UNL1        0.0262
     14 C         138.9444  143.0081  158.6639 C.ar    1  UNL1        0.0329
     15 C         138.0496  142.0843  157.8921 C.ar    1  UNL1        0.1592
     16 F         137.3454  142.5760  156.6623 F       1  UNL1       -0.2025
     17 C         137.8589  140.6686  158.3500 C.ar    1  UNL1        0.1285
     18 N         138.5631  140.1769  159.5797 N.ar    1  UNL1       -0.2368
     19 C         141.5048  140.5079  168.3410 C.ar    1  UNL1        0.0536
     20 C         140.2174  140.0752  168.9777 C.ar    1  UNL1        0.0045
     21 C         139.4322  141.0418  169.8139 C.ar    1  UNL1        0.0001
     22 C         139.9344  142.4411  170.0133 C.ar    1  UNL1        0.0000
     23 C         141.2218  142.8738  169.3766 C.ar    1  UNL1        0.0001
     24 C         142.0070  141.9072  168.5405 C.ar    1  UNL1        0.0045
@<TRIPOS>BOND
     1     1     2    2
     2     2    19    1
     3    19    20   ar
     4    20    21   ar
     5    21    22   ar
     6    22    23   ar
     7    23    24   ar
     8     2     3   am
     9     3     4    1
    10     4     5    1
    11     5     6    1
    12     6     7   ar
    13     7     8   ar
    14     8    12    1
    15    12    13   ar
    16    13    14   ar
    17    14    15   ar
    18    15    16    1
    19    15    17   ar
    20    17    18   ar
    21     8     9   ar
    22     9    10   ar
    23    10    11    1
    24    24    19   ar
    25    11     3    1
    26    10     6   ar
    27    18    12   ar
@<TRIPOS>MOLECULE
*****
 24 27 0 0 0
SMALL
GASTEIGER

@<TRIPOS>ATOM
      1 O         138.1408  139.3897  165.8073 O.2     1  UNL1       -0.2699
      2 C         138.8373  140.2729  164.8148 C.2     1  UNL1        0.2493
      3 N         139.5968  139.6649  163.6731 N.am    1  UNL1       -0.2698
      4 C         139.6598  138.1737  163.5238 C.3     1  UNL1        0.1021
      5 C         140.4193  137.5657  162.3821 C.3     1  UNL1        0.0874
      6 C         141.1157  138.4489  161.3897 C.ar    1  UNL1        0.1415
      7 O         141.9347  138.1392  160.1717 O.2     1  UNL1       -0.4380
      8 C         142.3777  139.4390  159.5682 C.ar    1  UNL1        0.2471
      9 N         141.8326  140.5520  160.4133 N.ar    1  UNL1       -0.2100
     10 C         141.0527  139.9401  161.5390 C.ar    1  UNL1        0.1124
     11 C         140.2932  140.5481  162.6807 C.3     1  UNL1        0.1425
     12 C         143.2183  139.5979  158.3360 C.ar    1  UNL1        0.1348
     13 C         144.1181  140.7892  158.1905 C.ar    1  UNL1        0.0262
     14 C         144.9587  140.9482  156.9584 C.ar    1  UNL1        0.0329
     15 C         144.8995  139.9159  155.8719 C.ar    1  UNL1        0.1592
     16 F         145.7401  140.0748  154.6397 F       1  UNL1       -0.2025
     17 C         143.9997  138.7246  156.0174 C.ar    1  UNL1        0.1285
     18 N         143.1591  138.5656  157.2495 N.ar    1  UNL1       -0.2368
     19 C         138.7742  141.7641  164.9641 C.ar    1  UNL1        0.0536
     20 C         139.7967  142.4783  165.7975 C.ar    1  UNL1        0.0045
     21 C         139.7336  143.9696  165.9468 C.ar    1  UNL1        0.0001
     22 C         138.6481  144.7466  165.2627 C.ar    1  UNL1        0.0000
     23 C         137.6257  144.0324  164.4293 C.ar    1  UNL1        0.0001
     24 C         137.6888  142.5412  164.2800 C.ar    1  UNL1        0.0045
@<TRIPOS>BOND
     1     1     2    2
     2     2    19    1
     3    19    20   ar
     4    20    21   ar
     5    21    22   ar
     6    22    23   ar
     7    23    24   ar
     8     2     3   am
     9     3     4    1
    10     4     5    1
    11     5     6    1
    12     6     7   ar
    13     7     8   ar
    14     8    12    1
    15    12    13   ar
    16    13    14   ar
    17    14    15   ar
    18    15    16    1
    19    15    17   ar
    20    17    18   ar
    21     8     9   ar
    22     9    10   ar
    23    10    11    1
    24    24    19   ar
    25    11     3    1
    26    10     6   ar
    27    18    12   ar
@<TRIPOS>MOLECULE
*****
 24 27 0 0 0
SMALL
GASTEIGER

@<TRIPOS>ATOM
      1 O         140.4361  138.9435  154.0787 O.2     1  UNL1       -0.2699
      2 C         140.7251  138.2805  155.3928 C.2     1  UNL1        0.2493
      3 N         140.0879  138.7961  156.6491 N.am    1  UNL1       -0.2698
      4 C         139.1617  139.9746  156.5912 C.3     1  UNL1        0.1021
      5 C         138.5245  140.4901  157.8474 C.3     1  UNL1        0.0874
      6 C         138.8135  139.8272  159.1616 C.ar    1  UNL1        0.1415
      7 O         138.3360  140.1105  160.5551 O.2     1  UNL1       -0.4380
      8 C         138.9671  139.1071  161.4742 C.ar    1  UNL1        0.2471
      9 N         139.8346  138.2037  160.6488 N.ar    1  UNL1       -0.2100
     10 C         139.7397  138.6487  159.2195 C.ar    1  UNL1        0.1124
     11 C         140.3768  138.1332  157.9633 C.3     1  UNL1        0.1425
     12 C         138.7661  139.0219  162.9583 C.ar    1  UNL1        0.1348
     13 C         139.0090  137.7268  163.6750 C.ar    1  UNL1        0.0262
     14 C         138.8080  137.6417  165.1590 C.ar    1  UNL1        0.0329
     15 C         138.3641  138.8516  165.9263 C.ar    1  UNL1        0.1592
     16 F         138.1630  138.7665  167.4104 F       1  UNL1       -0.2025
     17 C         138.1211  140.1468  165.2096 C.ar    1  UNL1        0.1285
     18 N         138.3222  140.2319  163.7256 N.ar    1  UNL1       -0.2368
     19 C         141.6513  137.1021  155.4507 C.ar    1  UNL1        0.0536
     20 C         143.1272  137.3154  155.6124 C.ar    1  UNL1        0.0045
     21 C         144.0534  136.1368  155.6703 C.ar    1  UNL1        0.0001
     22 C         143.5036  134.7451  155.5666 C.ar    1  UNL1        0.0000
     23 C         142.0277  134.5318  155.4050 C.ar    1  UNL1        0.0001
     24 C         141.1015  135.7103  155.3470 C.ar    1  UNL1        0.0045
@<TRIPOS>BOND
     1     1     2    2
     2     2    19    1
     3    19    20   ar
     4    20    21   ar
     5    21    22   ar
     6    22    23   ar
     7    23    24   ar
     8     2     3   am
     9     3     4    1
    10     4     5    1
    11     5     6    1
    12     6     7   ar
    13     7     8   ar
    14     8    12    1
    15    12    13   ar
    16    13    14   ar
    17    14    15   ar
    18    15    16    1
    19    15    17   ar
    20    17    18   ar
    21     8     9   ar
    22     9    10   ar
    23    10    11    1
    24    24    19   ar
    25    11     3    1
    26    10     6   ar
    27    18    12   ar
