@<TRIPOS>MOLECULE
*****
 44 49 0 0 0
SMALL
GASTEIGER

@<TRIPOS>ATOM
      1 C         140.8780  142.4775  161.1901 C.2     1  UNL1        0.3752
      2 N         141.8665  142.6335  162.3075 N.2     1  UNL1       -0.0308
      3 C         141.6972  141.4722  163.2417 C.2     1  UNL1        0.2333
      4 C         142.3972  141.0975  164.5143 C.2     1  UNL1        0.0645
      5 C         142.0041  139.8490  165.2469 C.2     1  UNL1        0.0506
      6 C         140.9110  138.9753  164.7070 C.2     1  UNL1       -0.0025
      7 C         140.2109  139.3500  163.4344 C.3     1  UNL1        0.1050
      8 C         140.6041  140.5984  162.7018 C.2     1  UNL1        0.2179
      9 N         140.0978  141.2197  161.4338 N.2     1  UNL1       -0.0347
     10 C         140.3464  145.2889  157.7169 C.ar    1  UNL1       -0.0225
     11 C         139.6352  143.9683  157.7285 C.ar    1  UNL1       -0.0040
     12 C         139.8124  143.0312  158.8862 C.ar    1  UNL1        0.0074
     13 C         140.7008  143.4146  160.0324 C.ar    1  UNL1        0.0884
     14 C         141.4120  144.7352  160.0208 C.ar    1  UNL1        0.0074
     15 C         141.2348  145.6724  158.8631 C.ar    1  UNL1       -0.0040
     16 C         139.8149  148.1004  154.2437 C.3     1  UNL1        0.0056
     17 C         139.0275  148.3074  155.5035 C.3     1  UNL1        0.0007
     18 C         139.2047  147.3703  156.6613 C.3     1  UNL1        0.0044
     19 C         140.1692  146.2261  156.5592 C.3     1  UNL1        0.0223
     20 C         140.9566  146.0190  155.2994 C.3     1  UNL1        0.0044
     21 C         140.7794  146.9562  154.1416 C.3     1  UNL1        0.0007
     22 C         139.6377  149.0375  153.0860 C.3     1  UNL1        0.0417
     23 O         139.0138  151.4947  152.5176 O.co2   1  UNL1       -0.5492
     24 C         139.8565  150.5097  153.2724 C.2     1  UNL1        0.0503
     25 O         140.9179  150.9969  154.2137 O.co2   1  UNL1       -0.5492
     26 N         142.7041  139.4743  166.5196 N.am    1  UNL1       -0.2792
     27 C         142.0248  139.6871  167.8399 C.2     1  UNL1        0.2703
     28 O         140.6454  140.2746  167.8875 O.2     1  UNL1       -0.2681
     29 H         143.6094  139.0887  166.4883 H       1  UNL1        0.1552
     30 C         142.7247  139.3123  169.1125 C.ar    1  UNL1        0.1763
     31 N         143.3488  137.9827  169.4169 N.ar    1  UNL1       -0.2037
     32 C         143.9333  138.0500  170.7967 C.ar    1  UNL1        0.2298
     33 O         143.6705  139.4213  171.3451 O.2     1  UNL1       -0.4304
     34 C         142.9236  140.2014  170.3042 C.ar    1  UNL1        0.2404
     35 C         144.6541  136.9409  171.5040 C.ar    1  UNL1        0.0536
     36 C         145.9183  137.2290  172.2581 C.ar    1  UNL1        0.0046
     37 C         146.6391  136.1198  172.9654 C.ar    1  UNL1        0.0002
     38 C         146.0956  134.7225  172.9186 C.ar    1  UNL1        0.0000
     39 C         144.8314  134.4344  172.1645 C.ar    1  UNL1        0.0002
     40 C         144.1106  135.5436  171.4572 C.ar    1  UNL1        0.0046
     41 C         142.4573  141.6213  170.4324 C.3     1  UNL1        0.4528
     42 F         141.9911  143.0412  170.5606 F       1  UNL1       -0.1631
     43 F         141.2458  141.1556  171.1842 F       1  UNL1       -0.1631
     44 F         143.6689  142.0870  169.6806 F       1  UNL1       -0.1631
@<TRIPOS>UNITY_ATOM_ATTR
23 1
charge -1
@<TRIPOS>BOND
     1    23    24   ar
     2    24    25   ar
     3    24    22    1
     4    22    16    1
     5    16    17    1
     6    17    18    1
     7    18    19    1
     8    19    10    1
     9    10    11   ar
    10    11    12   ar
    11    12    13   ar
    12    13     1    1
    13     1     2    2
    14     2     3    1
    15     3     4    2
    16     4     5    1
    17     5    26    1
    18    26    27   am
    19    27    28    2
    20    27    30    1
    21    30    31   ar
    22    31    32   ar
    23    32    35    1
    24    35    36   ar
    25    36    37   ar
    26    37    38   ar
    27    38    39   ar
    28    39    40   ar
    29    32    33   ar
    30    33    34   ar
    31    34    41    1
    32    41    42    1
    33    41    43    1
    34    41    44    1
    35     5     6    2
    36     6     7    1
    37     7     8    1
    38     8     9    2
    39    13    14   ar
    40    14    15   ar
    41    19    20    1
    42    20    21    1
    43    21    16    1
    44    15    10   ar
    45     9     1    1
    46     8     3    1
    47    34    30   ar
    48    40    35   ar
    49    26    29    1
@<TRIPOS>MOLECULE
*****
 44 49 0 0 0
SMALL
GASTEIGER

@<TRIPOS>ATOM
      1 C         140.6572  139.1343  161.9351 C.2     1  UNL1        0.3752
      2 N         141.8644  139.9349  161.5455 N.2     1  UNL1       -0.0308
      3 C         142.1304  139.6938  160.0891 C.2     1  UNL1        0.2333
      4 C         143.1874  140.2162  159.1619 C.2     1  UNL1        0.0645
      5 C         143.2016  139.7890  157.7241 C.2     1  UNL1        0.0506
      6 C         142.1588  138.8393  157.2136 C.2     1  UNL1       -0.0025
      7 C         141.1018  138.3168  158.1408 C.3     1  UNL1        0.1050
      8 C         141.0876  138.7441  159.5785 C.2     1  UNL1        0.2179
      9 N         140.1772  138.3983  160.7194 N.2     1  UNL1       -0.0347
     10 C         138.8018  138.9694  166.0314 C.ar    1  UNL1       -0.0225
     11 C         138.8589  137.7333  165.1836 C.ar    1  UNL1       -0.0040
     12 C         139.4773  137.7883  163.8181 C.ar    1  UNL1        0.0074
     13 C         140.0387  139.0793  163.3005 C.ar    1  UNL1        0.0884
     14 C         139.9816  140.3154  164.1483 C.ar    1  UNL1        0.0074
     15 C         139.3632  140.2604  165.5138 C.ar    1  UNL1       -0.0040
     16 C         136.9463  138.8044  170.1278 C.3     1  UNL1        0.0056
     17 C         138.0912  139.7358  169.8599 C.3     1  UNL1        0.0007
     18 C         138.7097  139.7907  168.4945 C.3     1  UNL1        0.0044
     19 C         138.1833  138.9144  167.3969 C.3     1  UNL1        0.0223
     20 C         137.0384  137.9831  167.6647 C.3     1  UNL1        0.0044
     21 C         136.4199  137.9281  169.0301 C.3     1  UNL1        0.0007
     22 C         136.3278  138.7495  171.4932 C.3     1  UNL1        0.0417
     23 O         134.8266  137.1800  172.9190 O.co2   1  UNL1       -0.5492
     24 C         136.0963  137.4254  172.1589 C.2     1  UNL1        0.0503
     25 O         137.1343  136.3468  172.0646 O.co2   1  UNL1       -0.5492
     26 N         144.2586  140.3114  156.7968 N.am    1  UNL1       -0.2792
     27 C         144.1779  141.7190  156.2846 C.2     1  UNL1        0.2703
     28 O         143.0401  142.6040  156.6997 O.2     1  UNL1       -0.2681
     29 H         145.0054  139.7305  156.5244 H       1  UNL1        0.1552
     30 C         145.2349  142.2414  155.3574 C.ar    1  UNL1        0.1763
     31 N         146.7089  141.9866  155.4679 N.ar    1  UNL1       -0.2037
     32 C         147.3884  142.6982  154.3356 C.ar    1  UNL1        0.2298
     33 O         146.3343  143.3927  153.5254 O.2     1  UNL1       -0.4304
     34 C         145.0034  143.1104  154.1569 C.ar    1  UNL1        0.2404
     35 C         148.8632  142.7126  154.0617 C.ar    1  UNL1        0.0536
     36 C         149.4316  143.6798  153.0661 C.ar    1  UNL1        0.0046
     37 C         150.9063  143.6943  152.7921 C.ar    1  UNL1        0.0002
     38 C         151.8126  142.7415  153.5139 C.ar    1  UNL1        0.0000
     39 C         151.2441  141.7743  154.5096 C.ar    1  UNL1        0.0002
     40 C         149.7694  141.7599  154.7835 C.ar    1  UNL1        0.0046
     41 C         143.6742  143.6095  153.6728 C.3     1  UNL1        0.4528
     42 F         142.3451  144.1087  153.1887 F       1  UNL1       -0.1631
     43 F         143.9452  144.9431  154.3039 F       1  UNL1       -0.1631
     44 F         143.4033  142.2760  153.0417 F       1  UNL1       -0.1631
@<TRIPOS>UNITY_ATOM_ATTR
23 1
charge -1
@<TRIPOS>BOND
     1    23    24   ar
     2    24    25   ar
     3    24    22    1
     4    22    16    1
     5    16    17    1
     6    17    18    1
     7    18    19    1
     8    19    10    1
     9    10    11   ar
    10    11    12   ar
    11    12    13   ar
    12    13     1    1
    13     1     2    2
    14     2     3    1
    15     3     4    2
    16     4     5    1
    17     5    26    1
    18    26    27   am
    19    27    28    2
    20    27    30    1
    21    30    31   ar
    22    31    32   ar
    23    32    35    1
    24    35    36   ar
    25    36    37   ar
    26    37    38   ar
    27    38    39   ar
    28    39    40   ar
    29    32    33   ar
    30    33    34   ar
    31    34    41    1
    32    41    42    1
    33    41    43    1
    34    41    44    1
    35     5     6    2
    36     6     7    1
    37     7     8    1
    38     8     9    2
    39    13    14   ar
    40    14    15   ar
    41    19    20    1
    42    20    21    1
    43    21    16    1
    44    15    10   ar
    45     9     1    1
    46     8     3    1
    47    34    30   ar
    48    40    35   ar
    49    26    29    1
@<TRIPOS>MOLECULE
*****
 44 49 0 0 0
SMALL
GASTEIGER

@<TRIPOS>ATOM
      1 C         139.7634  142.8141  156.2874 C.2     1  UNL1        0.3752
      2 N         140.1780  141.7048  155.3668 N.2     1  UNL1       -0.0308
      3 C         140.1748  140.4260  156.1508 C.2     1  UNL1        0.2333
      4 C         140.4974  139.0124  155.7667 C.2     1  UNL1        0.0645
      5 C         140.4033  137.9177  156.7878 C.2     1  UNL1        0.0506
      6 C         139.9867  138.2366  158.1931 C.2     1  UNL1       -0.0025
      7 C         139.6641  139.6502  158.5772 C.3     1  UNL1        0.1050
      8 C         139.7582  140.7449  157.5560 C.2     1  UNL1        0.2179
      9 N         139.5039  142.2208  157.6405 N.2     1  UNL1       -0.0347
     10 C         139.3676  147.1587  155.1840 C.ar    1  UNL1       -0.0225
     11 C         138.2008  146.2318  155.0119 C.ar    1  UNL1       -0.0040
     12 C         138.3328  144.7836  155.3797 C.ar    1  UNL1        0.0074
     13 C         139.6315  144.2623  155.9196 C.ar    1  UNL1        0.0884
     14 C         140.7982  145.1891  156.0918 C.ar    1  UNL1        0.0074
     15 C         140.6662  146.6373  155.7240 C.ar    1  UNL1       -0.0040
     16 C         138.9717  151.5033  154.0807 C.3     1  UNL1        0.0056
     17 C         139.5835  150.5360  153.1112 C.3     1  UNL1        0.0007
     18 C         139.7155  149.0878  153.4790 C.3     1  UNL1        0.0044
     19 C         139.2356  148.6069  154.8163 C.3     1  UNL1        0.0223
     20 C         138.6237  149.5742  155.7857 C.3     1  UNL1        0.0044
     21 C         138.4918  151.0224  155.4179 C.3     1  UNL1        0.0007
     22 C         138.8397  152.9515  153.7129 C.3     1  UNL1        0.0417
     23 O         140.8821  154.4927  154.1639 O.co2   1  UNL1       -0.5492
     24 C         139.5168  154.0010  154.5436 C.2     1  UNL1        0.0503
     25 O         138.8285  154.5589  155.7540 O.co2   1  UNL1       -0.5492
     26 N         140.7259  136.5040  156.4037 N.am    1  UNL1       -0.2792
     27 C         142.1207  135.9797  156.5760 C.2     1  UNL1        0.2703
     28 O         143.1929  136.8690  157.1324 O.2     1  UNL1       -0.2681
     29 H         140.0222  135.9203  156.0386 H       1  UNL1        0.1552
     30 C         142.4433  134.5660  156.1920 C.ar    1  UNL1        0.1763
     31 N         142.8133  133.4590  157.1341 N.ar    1  UNL1       -0.2037
     32 C         143.0512  132.2200  156.3228 C.ar    1  UNL1        0.2298
     33 O         142.8283  132.5613  154.8792 O.2     1  UNL1       -0.4304
     34 C         142.4526  134.0112  154.7984 C.ar    1  UNL1        0.2404
     35 C         143.4433  130.8757  156.8606 C.ar    1  UNL1        0.0536
     36 C         144.4487  130.7756  157.9692 C.ar    1  UNL1        0.0046
     37 C         144.8408  129.4313  158.5071 C.ar    1  UNL1        0.0002
     38 C         144.2273  128.1871  157.9362 C.ar    1  UNL1        0.0000
     39 C         143.2219  128.2873  156.8276 C.ar    1  UNL1        0.0002
     40 C         142.8298  129.6316  156.2898 C.ar    1  UNL1        0.0046
     41 C         142.1409  134.7726  153.5442 C.3     1  UNL1        0.4528
     42 F         141.8292  135.5340  152.2899 F       1  UNL1       -0.1631
     43 F         143.1356  135.8248  153.9357 F       1  UNL1       -0.1631
     44 F         141.1461  133.7204  153.1526 F       1  UNL1       -0.1631
@<TRIPOS>UNITY_ATOM_ATTR
23 1
charge -1
@<TRIPOS>BOND
     1    23    24   ar
     2    24    25   ar
     3    24    22    1
     4    22    16    1
     5    16    17    1
     6    17    18    1
     7    18    19    1
     8    19    10    1
     9    10    11   ar
    10    11    12   ar
    11    12    13   ar
    12    13     1    1
    13     1     2    2
    14     2     3    1
    15     3     4    2
    16     4     5    1
    17     5    26    1
    18    26    27   am
    19    27    28    2
    20    27    30    1
    21    30    31   ar
    22    31    32   ar
    23    32    35    1
    24    35    36   ar
    25    36    37   ar
    26    37    38   ar
    27    38    39   ar
    28    39    40   ar
    29    32    33   ar
    30    33    34   ar
    31    34    41    1
    32    41    42    1
    33    41    43    1
    34    41    44    1
    35     5     6    2
    36     6     7    1
    37     7     8    1
    38     8     9    2
    39    13    14   ar
    40    14    15   ar
    41    19    20    1
    42    20    21    1
    43    21    16    1
    44    15    10   ar
    45     9     1    1
    46     8     3    1
    47    34    30   ar
    48    40    35   ar
    49    26    29    1
@<TRIPOS>MOLECULE
*****
 44 49 0 0 0
SMALL
GASTEIGER

@<TRIPOS>ATOM
      1 C         140.3533  144.2686  156.4189 C.2     1  UNL1        0.3752
      2 N         140.2206  143.0236  155.5929 N.2     1  UNL1       -0.0308
      3 C         140.5930  141.8536  156.4546 C.2     1  UNL1        0.2333
      4 C         140.6485  140.3805  156.1777 C.2     1  UNL1        0.0645
      5 C         141.0669  139.4293  157.2594 C.2     1  UNL1        0.0506
      6 C         141.4298  139.9513  158.6181 C.2     1  UNL1       -0.0025
      7 C         141.3742  141.4244  158.8950 C.3     1  UNL1        0.1050
      8 C         140.9558  142.3756  157.8133 C.2     1  UNL1        0.2179
      9 N         140.8077  143.8681  157.7912 N.2     1  UNL1       -0.0347
     10 C         139.5323  148.4677  155.0249 C.ar    1  UNL1       -0.0225
     11 C         140.3087  147.5262  154.1527 C.ar    1  UNL1       -0.0040
     12 C         140.5823  146.1265  154.6173 C.ar    1  UNL1        0.0074
     13 C         140.0796  145.6683  155.9542 C.ar    1  UNL1        0.0884
     14 C         139.3033  146.6098  156.8264 C.ar    1  UNL1        0.0074
     15 C         139.0296  148.0095  156.3618 C.ar    1  UNL1       -0.0040
     16 C         138.7114  152.6669  153.6309 C.3     1  UNL1        0.0056
     17 C         138.4431  152.2838  155.0561 C.3     1  UNL1        0.0007
     18 C         138.7167  150.8841  155.5208 C.3     1  UNL1        0.0044
     19 C         139.2587  149.8674  154.5602 C.3     1  UNL1        0.0223
     20 C         139.5270  150.2505  153.1350 C.3     1  UNL1        0.0044
     21 C         139.2534  151.6502  152.6704 C.3     1  UNL1        0.0007
     22 C         138.4377  154.0666  153.1662 C.3     1  UNL1        0.0417
     23 O         139.5840  155.5609  154.9560 O.co2   1  UNL1       -0.5492
     24 C         138.3681  155.1870  154.1611 C.2     1  UNL1        0.0503
     25 O         137.0825  155.9334  154.3612 O.co2   1  UNL1       -0.5492
     26 N         141.1225  137.9561  156.9825 N.am    1  UNL1       -0.2792
     27 C         142.4211  137.3148  156.5920 C.2     1  UNL1        0.2703
     28 O         143.6641  138.1468  156.4784 O.2     1  UNL1       -0.2681
     29 H         140.3067  137.4101  157.0571 H       1  UNL1        0.1552
     30 C         142.4767  135.8417  156.3151 C.ar    1  UNL1        0.1763
     31 N         143.1933  134.8156  157.1420 N.ar    1  UNL1       -0.2037
     32 C         142.9850  133.4757  156.5007 C.ar    1  UNL1        0.2298
     33 O         142.1396  133.6737  155.2774 O.2     1  UNL1       -0.4304
     34 C         141.8255  135.1359  155.1628 C.ar    1  UNL1        0.2404
     35 C         143.5268  132.1675  156.9957 C.ar    1  UNL1        0.0536
     36 C         142.8272  130.8867  156.6494 C.ar    1  UNL1        0.0046
     37 C         143.3690  129.5785  157.1444 C.ar    1  UNL1        0.0002
     38 C         144.6106  129.5511  157.9857 C.ar    1  UNL1        0.0000
     39 C         145.3103  130.8320  158.3319 C.ar    1  UNL1        0.0002
     40 C         144.7684  132.1402  157.8369 C.ar    1  UNL1        0.0046
     41 C         141.0044  135.7794  154.0850 C.3     1  UNL1        0.4528
     42 F         140.1833  136.4229  153.0072 F       1  UNL1       -0.1631
     43 F         139.8411  135.8734  155.0273 F       1  UNL1       -0.1631
     44 F         142.1677  135.6855  153.1427 F       1  UNL1       -0.1631
@<TRIPOS>UNITY_ATOM_ATTR
23 1
charge -1
@<TRIPOS>BOND
     1    23    24   ar
     2    24    25   ar
     3    24    22    1
     4    22    16    1
     5    16    17    1
     6    17    18    1
     7    18    19    1
     8    19    10    1
     9    10    11   ar
    10    11    12   ar
    11    12    13   ar
    12    13     1    1
    13     1     2    2
    14     2     3    1
    15     3     4    2
    16     4     5    1
    17     5    26    1
    18    26    27   am
    19    27    28    2
    20    27    30    1
    21    30    31   ar
    22    31    32   ar
    23    32    35    1
    24    35    36   ar
    25    36    37   ar
    26    37    38   ar
    27    38    39   ar
    28    39    40   ar
    29    32    33   ar
    30    33    34   ar
    31    34    41    1
    32    41    42    1
    33    41    43    1
    34    41    44    1
    35     5     6    2
    36     6     7    1
    37     7     8    1
    38     8     9    2
    39    13    14   ar
    40    14    15   ar
    41    19    20    1
    42    20    21    1
    43    21    16    1
    44    15    10   ar
    45     9     1    1
    46     8     3    1
    47    34    30   ar
    48    40    35   ar
    49    26    29    1
@<TRIPOS>MOLECULE
*****
 44 49 0 0 0
SMALL
GASTEIGER

@<TRIPOS>ATOM
      1 C         142.5184  138.9032  160.1425 C.2     1  UNL1        0.3752
      2 N         142.6363  137.4363  159.8521 N.2     1  UNL1       -0.0308
      3 C         142.8282  137.2703  158.3737 C.2     1  UNL1        0.2333
      4 C         143.0024  136.0532  157.5146 C.2     1  UNL1        0.0645
      5 C         143.1773  136.2003  156.0321 C.2     1  UNL1        0.0506
      6 C         143.1779  137.5647  155.4088 C.2     1  UNL1       -0.0025
      7 C         143.0037  138.7818  156.2679 C.3     1  UNL1        0.1050
      8 C         142.8288  138.6347  157.7503 C.2     1  UNL1        0.2179
      9 N         142.6373  139.6438  158.8435 N.2     1  UNL1       -0.0347
     10 C         141.9137  140.7566  164.1982 C.ar    1  UNL1       -0.0225
     11 C         141.6292  141.5533  162.9596 C.ar    1  UNL1       -0.0040
     12 C         141.8308  140.9355  161.6077 C.ar    1  UNL1        0.0074
     13 C         142.3168  139.5210  161.4944 C.ar    1  UNL1        0.0884
     14 C         142.6014  138.7243  162.7330 C.ar    1  UNL1        0.0074
     15 C         142.3998  139.3421  164.0849 C.ar    1  UNL1       -0.0040
     16 C         141.3091  142.6099  168.2540 C.3     1  UNL1        0.0056
     17 C         142.5474  141.8122  167.9710 C.3     1  UNL1        0.0007
     18 C         142.7490  141.1944  166.6191 C.3     1  UNL1        0.0044
     19 C         141.7122  141.3744  165.5502 C.3     1  UNL1        0.0223
     20 C         140.4739  142.1721  165.8332 C.3     1  UNL1        0.0044
     21 C         140.2723  142.7899  167.1851 C.3     1  UNL1        0.0007
     22 C         141.1076  143.2277  169.6060 C.3     1  UNL1        0.0417
     23 O         139.0994  141.9961  170.7017 O.co2   1  UNL1       -0.5492
     24 C         140.5414  142.4088  170.7279 C.2     1  UNL1        0.0503
     25 O         141.4170  142.0026  171.8760 O.co2   1  UNL1       -0.5492
     26 N         143.3515  134.9831  155.1730 N.am    1  UNL1       -0.2792
     27 C         143.0428  133.6237  155.7268 C.2     1  UNL1        0.2703
     28 O         142.5598  133.4816  157.1399 O.2     1  UNL1       -0.2681
     29 H         143.6685  135.0764  154.2456 H       1  UNL1        0.1552
     30 C         143.2170  132.4066  154.8677 C.ar    1  UNL1        0.1763
     31 N         144.1874  131.2886  155.1092 N.ar    1  UNL1       -0.2037
     32 C         144.0216  130.2847  154.0070 C.ar    1  UNL1        0.2298
     33 O         142.9486  130.7823  153.0844 O.2     1  UNL1       -0.4304
     34 C         142.4513  132.0936  153.6164 C.ar    1  UNL1        0.2404
     35 C         144.7932  129.0075  153.8543 C.ar    1  UNL1        0.0536
     36 C         144.9019  128.3531  152.5089 C.ar    1  UNL1        0.0046
     37 C         145.6735  127.0759  152.3561 C.ar    1  UNL1        0.0002
     38 C         146.3365  126.4530  153.5488 C.ar    1  UNL1        0.0000
     39 C         146.2278  127.1073  154.8942 C.ar    1  UNL1        0.0002
     40 C         145.4562  128.3845  155.0469 C.ar    1  UNL1        0.0046
     41 C         141.3771  132.9430  153.0044 C.3     1  UNL1        0.4528
     42 F         140.3028  133.7923  152.3924 F       1  UNL1       -0.1631
     43 F         142.4219  133.7587  152.3024 F       1  UNL1       -0.1631
     44 F         140.3322  132.1273  153.7064 F       1  UNL1       -0.1631
@<TRIPOS>UNITY_ATOM_ATTR
23 1
charge -1
@<TRIPOS>BOND
     1    23    24   ar
     2    24    25   ar
     3    24    22    1
     4    22    16    1
     5    16    17    1
     6    17    18    1
     7    18    19    1
     8    19    10    1
     9    10    11   ar
    10    11    12   ar
    11    12    13   ar
    12    13     1    1
    13     1     2    2
    14     2     3    1
    15     3     4    2
    16     4     5    1
    17     5    26    1
    18    26    27   am
    19    27    28    2
    20    27    30    1
    21    30    31   ar
    22    31    32   ar
    23    32    35    1
    24    35    36   ar
    25    36    37   ar
    26    37    38   ar
    27    38    39   ar
    28    39    40   ar
    29    32    33   ar
    30    33    34   ar
    31    34    41    1
    32    41    42    1
    33    41    43    1
    34    41    44    1
    35     5     6    2
    36     6     7    1
    37     7     8    1
    38     8     9    2
    39    13    14   ar
    40    14    15   ar
    41    19    20    1
    42    20    21    1
    43    21    16    1
    44    15    10   ar
    45     9     1    1
    46     8     3    1
    47    34    30   ar
    48    40    35   ar
    49    26    29    1
@<TRIPOS>MOLECULE
*****
 44 49 0 0 0
SMALL
GASTEIGER

@<TRIPOS>ATOM
      1 C         141.5612  142.1843  164.5349 C.2     1  UNL1        0.3752
      2 N         142.1418  142.4059  163.1697 N.2     1  UNL1       -0.0308
      3 C         141.3563  143.4962  162.5032 C.2     1  UNL1        0.2333
      4 C         141.4741  144.1356  161.1515 C.2     1  UNL1        0.0645
      5 C         140.5257  145.2273  160.7530 C.2     1  UNL1        0.0506
      6 C         139.4595  145.6796  161.7063 C.2     1  UNL1       -0.0025
      7 C         139.3417  145.0401  163.0581 C.3     1  UNL1        0.1050
      8 C         140.2901  143.9485  163.4565 C.2     1  UNL1        0.2179
      9 N         140.4168  143.1377  164.7121 N.2     1  UNL1       -0.0347
     10 C         142.9999  139.1859  167.5663 C.ar    1  UNL1       -0.0225
     11 C         142.8779  138.7943  166.1235 C.ar    1  UNL1       -0.0040
     12 C         142.3983  139.7937  165.1130 C.ar    1  UNL1        0.0074
     13 C         142.0407  141.1848  165.5453 C.ar    1  UNL1        0.0884
     14 C         142.1627  141.5765  166.9881 C.ar    1  UNL1        0.0074
     15 C         142.6423  140.5770  167.9986 C.ar    1  UNL1       -0.0040
     16 C         144.4386  136.1875  170.5978 C.3     1  UNL1        0.0056
     17 C         143.4330  137.2285  170.9914 C.3     1  UNL1        0.0007
     18 C         142.9534  138.2280  169.9809 C.3     1  UNL1        0.0044
     19 C         143.4794  138.1864  168.5768 C.3     1  UNL1        0.0223
     20 C         144.4850  137.1454  168.1832 C.3     1  UNL1        0.0044
     21 C         144.9646  136.1459  169.1937 C.3     1  UNL1        0.0007
     22 C         144.9181  135.1880  171.6083 C.3     1  UNL1        0.0417
     23 O         147.2556  136.3140  171.7436 O.co2   1  UNL1       -0.5492
     24 C         146.2087  135.4185  172.3371 C.2     1  UNL1        0.0503
     25 O         146.4524  134.7536  173.6594 O.co2   1  UNL1       -0.5492
     26 N         140.6434  145.8668  159.4012 N.am    1  UNL1       -0.2792
     27 C         140.1287  145.1530  158.1865 C.2     1  UNL1        0.2703
     28 O         139.4962  143.7998  158.3236 O.2     1  UNL1       -0.2681
     29 H         141.0586  146.7549  159.3113 H       1  UNL1        0.1552
     30 C         140.2464  145.7924  156.8348 C.ar    1  UNL1        0.1763
     31 N         139.8040  147.1796  156.4741 N.ar    1  UNL1       -0.2037
     32 C         140.1114  147.4014  155.0228 C.ar    1  UNL1        0.2298
     33 O         140.7437  146.1514  154.4865 O.2     1  UNL1       -0.4304
     34 C         140.8271  145.1570  155.6064 C.ar    1  UNL1        0.2404
     35 C         139.8349  148.6535  154.2444 C.ar    1  UNL1        0.0536
     36 C         139.2047  149.8341  154.9219 C.ar    1  UNL1        0.0046
     37 C         138.9282  151.0862  154.1436 C.ar    1  UNL1        0.0002
     38 C         139.2820  151.1577  152.6876 C.ar    1  UNL1        0.0000
     39 C         139.9122  149.9771  152.0101 C.ar    1  UNL1        0.0002
     40 C         140.1887  148.7250  152.7885 C.ar    1  UNL1        0.0046
     41 C         141.3921  143.7705  155.5141 C.3     1  UNL1        0.4528
     42 F         141.9571  142.3841  155.4218 F       1  UNL1       -0.1631
     43 F         140.1038  143.2852  154.9185 F       1  UNL1       -0.1631
     44 F         142.6805  144.2559  156.1096 F       1  UNL1       -0.1631
@<TRIPOS>UNITY_ATOM_ATTR
23 1
charge -1
@<TRIPOS>BOND
     1    23    24   ar
     2    24    25   ar
     3    24    22    1
     4    22    16    1
     5    16    17    1
     6    17    18    1
     7    18    19    1
     8    19    10    1
     9    10    11   ar
    10    11    12   ar
    11    12    13   ar
    12    13     1    1
    13     1     2    2
    14     2     3    1
    15     3     4    2
    16     4     5    1
    17     5    26    1
    18    26    27   am
    19    27    28    2
    20    27    30    1
    21    30    31   ar
    22    31    32   ar
    23    32    35    1
    24    35    36   ar
    25    36    37   ar
    26    37    38   ar
    27    38    39   ar
    28    39    40   ar
    29    32    33   ar
    30    33    34   ar
    31    34    41    1
    32    41    42    1
    33    41    43    1
    34    41    44    1
    35     5     6    2
    36     6     7    1
    37     7     8    1
    38     8     9    2
    39    13    14   ar
    40    14    15   ar
    41    19    20    1
    42    20    21    1
    43    21    16    1
    44    15    10   ar
    45     9     1    1
    46     8     3    1
    47    34    30   ar
    48    40    35   ar
    49    26    29    1
@<TRIPOS>MOLECULE
*****
 44 49 0 0 0
SMALL
GASTEIGER

@<TRIPOS>ATOM
      1 C         142.0230  141.7171  161.4652 C.2     1  UNL1        0.3752
      2 N         143.4778  141.8972  161.1472 N.2     1  UNL1       -0.0308
      3 C         143.6005  142.1726  159.6778 C.2     1  UNL1        0.2333
      4 C         144.7897  142.4310  158.8009 C.2     1  UNL1        0.0645
      5 C         144.5999  142.6796  157.3339 C.2     1  UNL1        0.0506
      6 C         143.2209  142.6697  156.7438 C.2     1  UNL1       -0.0025
      7 C         142.0317  142.4113  157.6206 C.3     1  UNL1        0.1050
      8 C         142.2215  142.1627  159.0876 C.2     1  UNL1        0.2179
      9 N         141.2466  141.8812  160.1923 N.2     1  UNL1       -0.0347
     10 C         140.2919  140.8389  165.5250 C.ar    1  UNL1       -0.0225
     11 C         140.9703  142.1516  165.2669 C.ar    1  UNL1       -0.0040
     12 C         141.5473  142.4443  163.9136 C.ar    1  UNL1        0.0074
     13 C         141.4460  141.4244  162.8185 C.ar    1  UNL1        0.0884
     14 C         140.7676  140.1117  163.0766 C.ar    1  UNL1        0.0074
     15 C         140.1906  139.8190  164.4298 C.ar    1  UNL1       -0.0040
     16 C         138.5608  139.9607  169.5848 C.3     1  UNL1        0.0056
     17 C         139.6213  141.0106  169.4328 C.3     1  UNL1        0.0007
     18 C         140.1983  141.3033  168.0795 C.3     1  UNL1        0.0044
     19 C         139.7149  140.5462  166.8783 C.3     1  UNL1        0.0223
     20 C         138.6545  139.4963  167.0303 C.3     1  UNL1        0.0044
     21 C         138.0774  139.2035  168.3836 C.3     1  UNL1        0.0007
     22 C         137.9838  139.6679  170.9381 C.3     1  UNL1        0.0417
     23 O         135.5703  139.6854  171.8999 O.co2   1  UNL1       -0.5492
     24 C         136.6274  139.0383  171.0548 C.2     1  UNL1        0.0503
     25 O         136.3280  137.7616  170.3266 O.co2   1  UNL1       -0.5492
     26 N         145.7891  142.9381  156.4569 N.am    1  UNL1       -0.2792
     27 C         146.5424  141.7882  155.8567 C.2     1  UNL1        0.2703
     28 O         146.1064  140.3798  156.1334 O.2     1  UNL1       -0.2681
     29 H         146.0753  143.8624  156.2754 H       1  UNL1        0.1552
     30 C         147.7316  142.0466  154.9798 C.ar    1  UNL1        0.1763
     31 N         149.0785  141.3989  155.1074 N.ar    1  UNL1       -0.2037
     32 C         149.9620  141.9500  154.0278 C.ar    1  UNL1        0.2298
     33 O         149.1612  142.9385  153.2329 O.2     1  UNL1       -0.4304
     34 C         147.7827  142.9981  153.8213 C.ar    1  UNL1        0.2404
     35 C         151.3949  141.5781  153.7855 C.ar    1  UNL1        0.0536
     36 C         152.4858  142.5648  154.0791 C.ar    1  UNL1        0.0046
     37 C         153.9187  142.1930  153.8368 C.ar    1  UNL1        0.0002
     38 C         154.2606  140.8343  153.3010 C.ar    1  UNL1        0.0000
     39 C         153.1696  139.8475  153.0074 C.ar    1  UNL1        0.0002
     40 C         151.7368  140.2195  153.2497 C.ar    1  UNL1        0.0046
     41 C         146.6536  143.8583  153.3364 C.3     1  UNL1        0.4528
     42 F         145.5245  144.7185  152.8515 F       1  UNL1       -0.1631
     43 F         147.1653  144.9980  154.1665 F       1  UNL1       -0.1631
     44 F         146.1419  142.7186  152.5062 F       1  UNL1       -0.1631
@<TRIPOS>UNITY_ATOM_ATTR
23 1
charge -1
@<TRIPOS>BOND
     1    23    24   ar
     2    24    25   ar
     3    24    22    1
     4    22    16    1
     5    16    17    1
     6    17    18    1
     7    18    19    1
     8    19    10    1
     9    10    11   ar
    10    11    12   ar
    11    12    13   ar
    12    13     1    1
    13     1     2    2
    14     2     3    1
    15     3     4    2
    16     4     5    1
    17     5    26    1
    18    26    27   am
    19    27    28    2
    20    27    30    1
    21    30    31   ar
    22    31    32   ar
    23    32    35    1
    24    35    36   ar
    25    36    37   ar
    26    37    38   ar
    27    38    39   ar
    28    39    40   ar
    29    32    33   ar
    30    33    34   ar
    31    34    41    1
    32    41    42    1
    33    41    43    1
    34    41    44    1
    35     5     6    2
    36     6     7    1
    37     7     8    1
    38     8     9    2
    39    13    14   ar
    40    14    15   ar
    41    19    20    1
    42    20    21    1
    43    21    16    1
    44    15    10   ar
    45     9     1    1
    46     8     3    1
    47    34    30   ar
    48    40    35   ar
    49    26    29    1
@<TRIPOS>MOLECULE
*****
 44 49 0 0 0
SMALL
GASTEIGER

@<TRIPOS>ATOM
      1 C         142.6739  140.9994  160.1334 C.2     1  UNL1        0.3752
      2 N         144.0784  141.2882  159.6930 N.2     1  UNL1       -0.0308
      3 C         144.1274  141.1773  158.1979 C.2     1  UNL1        0.2333
      4 C         145.2458  141.3556  157.2144 C.2     1  UNL1        0.0645
      5 C         144.9900  141.1766  155.7473 C.2     1  UNL1        0.0506
      6 C         143.6158  140.8193  155.2636 C.2     1  UNL1       -0.0025
      7 C         142.4974  140.6410  156.2471 C.3     1  UNL1        0.1050
      8 C         142.7532  140.8200  157.7143 C.2     1  UNL1        0.2179
      9 N         141.8549  140.7100  158.9105 N.2     1  UNL1       -0.0347
     10 C         141.1798  141.0006  164.3781 C.ar    1  UNL1       -0.0225
     11 C         141.2981  139.7088  163.6250 C.ar    1  UNL1       -0.0040
     12 C         141.7961  139.7084  162.2101 C.ar    1  UNL1        0.0074
     13 C         142.1759  140.9998  161.5483 C.ar    1  UNL1        0.0884
     14 C         142.0576  142.2916  162.3014 C.ar    1  UNL1        0.0074
     15 C         141.5595  142.2920  163.7163 C.ar    1  UNL1       -0.0040
     16 C         139.6856  141.0019  168.6228 C.3     1  UNL1        0.0056
     17 C         140.4467  142.1819  168.0952 C.3     1  UNL1        0.0007
     18 C         140.9447  142.1815  166.6803 C.3     1  UNL1        0.0044
     19 C         140.6817  141.0011  165.7930 C.3     1  UNL1        0.0223
     20 C         139.9207  139.8211  166.3206 C.3     1  UNL1        0.0044
     21 C         139.4227  139.8215  167.7355 C.3     1  UNL1        0.0007
     22 C         139.1876  141.0024  170.0377 C.3     1  UNL1        0.0417
     23 O         139.2799  143.3311  171.1860 O.co2   1  UNL1       -0.5492
     24 C         139.7968  141.9298  171.0470 C.2     1  UNL1        0.0503
     25 O         140.9230  141.4561  171.9173 O.co2   1  UNL1       -0.5492
     26 N         146.1085  141.3549  154.7637 N.am    1  UNL1       -0.2792
     27 C         147.3861  142.0137  155.1921 C.2     1  UNL1        0.2703
     28 O         147.5454  142.4942  156.6042 O.2     1  UNL1       -0.2681
     29 H         146.0040  141.0395  153.8369 H       1  UNL1        0.1552
     30 C         148.5045  142.1920  154.2086 C.ar    1  UNL1        0.1763
     31 N         149.8443  141.5198  154.2656 N.ar    1  UNL1       -0.2037
     32 C         150.6474  141.9861  153.0877 C.ar    1  UNL1        0.2298
     33 O         149.8039  142.9465  152.3026 O.2     1  UNL1       -0.4304
     34 C         148.4796  143.0737  152.9954 C.ar    1  UNL1        0.2404
     35 C         152.0480  141.5659  152.7534 C.ar    1  UNL1        0.0536
     36 C         152.4469  140.1247  152.8714 C.ar    1  UNL1        0.0046
     37 C         153.8475  139.7044  152.5371 C.ar    1  UNL1        0.0002
     38 C         154.8492  140.7253  152.0850 C.ar    1  UNL1        0.0000
     39 C         154.4502  142.1665  151.9670 C.ar    1  UNL1        0.0002
     40 C         153.0496  142.5867  152.3013 C.ar    1  UNL1        0.0046
     41 C         147.3318  143.9320  152.5527 C.3     1  UNL1        0.4528
     42 F         146.1841  144.7903  152.1100 F       1  UNL1       -0.1631
     43 F         146.6570  142.7273  151.9668 F       1  UNL1       -0.1631
     44 F         148.0067  145.1367  153.1385 F       1  UNL1       -0.1631
@<TRIPOS>UNITY_ATOM_ATTR
23 1
charge -1
@<TRIPOS>BOND
     1    23    24   ar
     2    24    25   ar
     3    24    22    1
     4    22    16    1
     5    16    17    1
     6    17    18    1
     7    18    19    1
     8    19    10    1
     9    10    11   ar
    10    11    12   ar
    11    12    13   ar
    12    13     1    1
    13     1     2    2
    14     2     3    1
    15     3     4    2
    16     4     5    1
    17     5    26    1
    18    26    27   am
    19    27    28    2
    20    27    30    1
    21    30    31   ar
    22    31    32   ar
    23    32    35    1
    24    35    36   ar
    25    36    37   ar
    26    37    38   ar
    27    38    39   ar
    28    39    40   ar
    29    32    33   ar
    30    33    34   ar
    31    34    41    1
    32    41    42    1
    33    41    43    1
    34    41    44    1
    35     5     6    2
    36     6     7    1
    37     7     8    1
    38     8     9    2
    39    13    14   ar
    40    14    15   ar
    41    19    20    1
    42    20    21    1
    43    21    16    1
    44    15    10   ar
    45     9     1    1
    46     8     3    1
    47    34    30   ar
    48    40    35   ar
    49    26    29    1
@<TRIPOS>MOLECULE
*****
 44 49 0 0 0
SMALL
GASTEIGER

@<TRIPOS>ATOM
      1 C         141.0787  140.8553  162.9445 C.2     1  UNL1        0.3752
      2 N         141.5970  142.1189  162.3243 N.2     1  UNL1       -0.0308
      3 C         140.7216  142.4535  161.1531 C.2     1  UNL1        0.2333
      4 C         140.7523  143.5839  160.1676 C.2     1  UNL1        0.0645
      5 C         139.7235  143.6574  159.0785 C.2     1  UNL1        0.0506
      6 C         138.6641  142.6006  158.9749 C.2     1  UNL1       -0.0025
      7 C         138.6334  141.4702  159.9603 C.3     1  UNL1        0.1050
      8 C         139.6622  141.3966  161.0494 C.2     1  UNL1        0.2179
      9 N         139.8829  140.4090  162.1566 N.2     1  UNL1       -0.0347
     10 C         142.8075  138.7699  166.5378 C.ar    1  UNL1       -0.0225
     11 C         143.6630  139.0181  165.3311 C.ar    1  UNL1       -0.0040
     12 C         143.0868  139.7133  164.1333 C.ar    1  UNL1        0.0074
     13 C         141.6549  140.1602  164.1423 C.ar    1  UNL1        0.0884
     14 C         140.7994  139.9120  165.3491 C.ar    1  UNL1        0.0074
     15 C         141.3757  139.2168  166.5468 C.ar    1  UNL1       -0.0040
     16 C         144.5363  136.6845  170.1312 C.3     1  UNL1        0.0056
     17 C         143.4642  137.7186  170.3079 C.3     1  UNL1        0.0007
     18 C         142.8880  138.4137  169.1101 C.3     1  UNL1        0.0044
     19 C         143.3837  138.0748  167.7356 C.3     1  UNL1        0.0223
     20 C         144.4558  137.0407  167.5589 C.3     1  UNL1        0.0044
     21 C         145.0321  136.3455  168.7567 C.3     1  UNL1        0.0007
     22 C         145.1125  135.9894  171.3290 C.3     1  UNL1        0.0417
     23 O         147.3962  137.1969  171.0515 O.co2   1  UNL1       -0.5492
     24 C         146.4169  136.4507  171.9085 C.2     1  UNL1        0.0503
     25 O         146.7420  136.1659  173.3448 O.co2   1  UNL1       -0.5492
     26 N         139.7541  144.7879  158.0929 N.am    1  UNL1       -0.2792
     27 C         140.3219  144.5720  156.7214 C.2     1  UNL1        0.2703
     28 O         140.8590  143.2256  156.3354 O.2     1  UNL1       -0.2681
     29 H         139.4016  145.6715  158.3463 H       1  UNL1        0.1552
     30 C         140.3525  145.7023  155.7359 C.ar    1  UNL1        0.1763
     31 N         139.7528  147.0626  155.9356 N.ar    1  UNL1       -0.2037
     32 C         140.0179  147.8719  154.7007 C.ar    1  UNL1        0.2298
     33 O         140.7815  147.0117  153.7378 O.2     1  UNL1       -0.4304
     34 C         140.9882  145.6708  154.3776 C.ar    1  UNL1        0.2404
     35 C         139.5939  149.2920  154.4694 C.ar    1  UNL1        0.0536
     36 C         139.9202  149.9702  153.1719 C.ar    1  UNL1        0.0046
     37 C         139.4962  151.3904  152.9404 C.ar    1  UNL1        0.0002
     38 C         138.7459  152.1322  154.0067 C.ar    1  UNL1        0.0000
     39 C         138.4197  151.4540  155.3042 C.ar    1  UNL1        0.0002
     40 C         138.8437  150.0339  155.5355 C.ar    1  UNL1        0.0046
     41 C         141.7049  144.5034  153.7664 C.3     1  UNL1        0.4528
     42 F         142.4216  143.3361  153.1552 F       1  UNL1       -0.1631
     43 F         143.0172  145.0725  154.2181 F       1  UNL1       -0.1631
     44 F         140.3926  143.9343  153.3147 F       1  UNL1       -0.1631
@<TRIPOS>UNITY_ATOM_ATTR
23 1
charge -1
@<TRIPOS>BOND
     1    23    24   ar
     2    24    25   ar
     3    24    22    1
     4    22    16    1
     5    16    17    1
     6    17    18    1
     7    18    19    1
     8    19    10    1
     9    10    11   ar
    10    11    12   ar
    11    12    13   ar
    12    13     1    1
    13     1     2    2
    14     2     3    1
    15     3     4    2
    16     4     5    1
    17     5    26    1
    18    26    27   am
    19    27    28    2
    20    27    30    1
    21    30    31   ar
    22    31    32   ar
    23    32    35    1
    24    35    36   ar
    25    36    37   ar
    26    37    38   ar
    27    38    39   ar
    28    39    40   ar
    29    32    33   ar
    30    33    34   ar
    31    34    41    1
    32    41    42    1
    33    41    43    1
    34    41    44    1
    35     5     6    2
    36     6     7    1
    37     7     8    1
    38     8     9    2
    39    13    14   ar
    40    14    15   ar
    41    19    20    1
    42    20    21    1
    43    21    16    1
    44    15    10   ar
    45     9     1    1
    46     8     3    1
    47    34    30   ar
    48    40    35   ar
    49    26    29    1
