@<TRIPOS>MOLECULE
*****
 32 35 0 0 0
SMALL
GASTEIGER

@<TRIPOS>ATOM
      1 C         139.5934  140.4382  168.0532 C.ar    1  UNL1       -0.0065
      2 C         140.4923  141.4339  167.3820 C.ar    1  UNL1       -0.0033
      3 C         140.8823  141.2437  165.9461 C.ar    1  UNL1       -0.0048
      4 C         140.3734  140.0579  165.1814 C.ar    1  UNL1       -0.0245
      5 C         139.4745  139.0622  165.8526 C.ar    1  UNL1       -0.0263
      6 C         139.0845  139.2523  167.2885 C.ar    1  UNL1       -0.0075
      7 C         138.9656  137.8762  165.0880 C.3     1  UNL1        0.0277
      8 C         139.3556  137.6861  163.6521 C.3     1  UNL1        0.0248
      9 C         140.2546  138.6819  162.9809 C.3     1  UNL1        0.0801
     10 C         140.7634  139.8677  163.7456 C.3     1  UNL1        0.0458
     11 N         140.6446  138.4917  161.5450 N.am    1  UNL1       -0.2783
     12 C         142.0484  138.0951  161.1953 C.3     1  UNL1        0.1107
     13 C         142.4384  137.9050  159.7595 C.3     1  UNL1        0.0942
     14 N         141.4246  138.1114  158.6733 N.3     1  UNL1       -0.2632
     15 C         140.0209  138.5079  159.0230 C.3     1  UNL1        0.1587
     16 C         139.6309  138.6981  160.4589 C.2     1  UNL1        0.2420
     17 O         138.2272  139.0946  160.8086 O.2     1  UNL1       -0.2734
     18 C         141.8146  137.9212  157.2374 C.3     1  UNL1        0.0773
     19 C         142.9451  137.0012  156.8828 C.3     1  UNL1        0.0437
     20 C         142.6687  135.5618  156.5637 C.ar    1  UNL1       -0.0207
     21 C         141.6699  135.2073  155.5023 C.ar    1  UNL1       -0.0034
     22 C         141.3936  133.7679  155.1832 C.ar    1  UNL1        0.0111
     23 C         142.1159  132.6830  155.9256 C.ar    1  UNL1        0.0577
     24 CL        141.8396  131.2437  155.6065 Cl      1  UNL1       -0.0822
     25 C         143.1147  133.0375  156.9871 C.ar    1  UNL1        0.0111
     26 C         143.3911  134.4769  157.3062 C.ar    1  UNL1       -0.0034
     27 C         139.2034  140.6283  169.4891 C.3     1  UNL1        0.0991
     28 N         140.0876  141.4179  170.4081 N.3     1  UNL1       -0.2690
     29 C         140.4235  143.9476  169.9205 C.3     1  UNL1        0.0188
     30 C         139.7674  142.8524  170.7079 C.3     1  UNL1        0.0724
     31 C         141.2920  140.7731  171.0275 C.3     1  UNL1        0.0724
     32 C         142.6353  140.9100  170.3743 C.3     1  UNL1        0.0188
@<TRIPOS>BOND
     1    29    30    1
     2    30    28    1
     3    28    31    1
     4    31    32    1
     5    28    27    1
     6    27     1    1
     7     1     2   ar
     8     2     3   ar
     9     3     4   ar
    10     4     5   ar
    11     5     6   ar
    12     5     7    1
    13     7     8    1
    14     8     9    1
    15     9    11    1
    16    11    12    1
    17    12    13    1
    18    13    14    1
    19    14    18    1
    20    18    19    1
    21    19    20    1
    22    20    21   ar
    23    21    22   ar
    24    22    23   ar
    25    23    24    1
    26    23    25   ar
    27    25    26   ar
    28    14    15    1
    29    15    16    1
    30    16    17    2
    31     9    10    1
    32     6     1   ar
    33    16    11   am
    34    10     4    1
    35    26    20   ar
@<TRIPOS>MOLECULE
*****
 32 35 0 0 0
SMALL
GASTEIGER

@<TRIPOS>ATOM
      1 C         142.3329  141.4752  167.1232 C.ar    1  UNL1       -0.0065
      2 C         141.1700  140.8627  166.4005 C.ar    1  UNL1       -0.0033
      3 C         140.8510  141.2871  164.9976 C.ar    1  UNL1       -0.0048
      4 C         141.6948  142.3239  164.3174 C.ar    1  UNL1       -0.0245
      5 C         142.8577  142.9365  165.0401 C.ar    1  UNL1       -0.0263
      6 C         143.1768  142.5121  166.4430 C.ar    1  UNL1       -0.0075
      7 C         143.7017  143.9734  164.3599 C.3     1  UNL1        0.0277
      8 C         143.3826  144.3978  162.9570 C.3     1  UNL1        0.0248
      9 C         142.2196  143.7852  162.2343 C.3     1  UNL1        0.0801
     10 C         141.3758  142.7483  162.9145 C.3     1  UNL1        0.0458
     11 N         141.9006  144.2095  160.8314 N.am    1  UNL1       -0.2783
     12 C         140.7704  145.1618  160.5745 C.3     1  UNL1        0.1107
     13 C         140.4513  145.5861  159.1716 C.3     1  UNL1        0.0942
     14 N         141.2625  145.0582  158.0256 N.3     1  UNL1       -0.2632
     15 C         142.3926  144.1060  158.2824 C.3     1  UNL1        0.1587
     16 C         142.7117  143.6817  159.6853 C.2     1  UNL1        0.2420
     17 O         143.8419  142.7295  159.9422 O.2     1  UNL1       -0.2734
     18 C         140.9434  145.4826  156.6227 C.3     1  UNL1        0.0773
     19 C         139.5781  146.0074  156.2900 C.3     1  UNL1        0.0437
     20 C         139.4173  147.4082  155.7782 C.ar    1  UNL1       -0.0207
     21 C         140.0140  147.7975  154.4583 C.ar    1  UNL1       -0.0034
     22 C         139.8532  149.1983  153.9464 C.ar    1  UNL1        0.0111
     23 C         139.0957  150.2097  154.7546 C.ar    1  UNL1        0.0577
     24 CL        138.9349  151.6105  154.2427 Cl      1  UNL1       -0.0822
     25 C         138.4990  149.8204  156.0746 C.ar    1  UNL1        0.0111
     26 C         138.6598  148.4197  156.5864 C.ar    1  UNL1       -0.0034
     27 C         142.6520  141.0509  168.5261 C.3     1  UNL1        0.0991
     28 N         141.6432  141.2510  169.6179 N.3     1  UNL1       -0.2690
     29 C         140.7614  143.6901  169.7708 C.3     1  UNL1        0.0188
     30 C         141.5709  142.5632  170.3410 C.3     1  UNL1        0.0724
     31 C         140.7066  140.1388  169.9868 C.3     1  UNL1        0.0724
     32 C         139.2254  140.3269  169.8430 C.3     1  UNL1        0.0188
@<TRIPOS>BOND
     1    29    30    1
     2    30    28    1
     3    28    31    1
     4    31    32    1
     5    28    27    1
     6    27     1    1
     7     1     2   ar
     8     2     3   ar
     9     3     4   ar
    10     4     5   ar
    11     5     6   ar
    12     5     7    1
    13     7     8    1
    14     8     9    1
    15     9    11    1
    16    11    12    1
    17    12    13    1
    18    13    14    1
    19    14    18    1
    20    18    19    1
    21    19    20    1
    22    20    21   ar
    23    21    22   ar
    24    22    23   ar
    25    23    24    1
    26    23    25   ar
    27    25    26   ar
    28    14    15    1
    29    15    16    1
    30    16    17    2
    31     9    10    1
    32     6     1   ar
    33    16    11   am
    34    10     4    1
    35    26    20   ar
@<TRIPOS>MOLECULE
*****
 32 35 0 0 0
SMALL
GASTEIGER

@<TRIPOS>ATOM
      1 C         142.5471  141.1115  167.3539 C.ar    1  UNL1       -0.0065
      2 C         142.6147  142.2428  166.3714 C.ar    1  UNL1       -0.0033
      3 C         142.4362  141.9755  164.9062 C.ar    1  UNL1       -0.0048
      4 C         142.1902  140.5767  164.4236 C.ar    1  UNL1       -0.0245
      5 C         142.1227  139.4454  165.4061 C.ar    1  UNL1       -0.0263
      6 C         142.3011  139.7127  166.8713 C.ar    1  UNL1       -0.0075
      7 C         141.8766  138.0465  164.9235 C.3     1  UNL1        0.0277
      8 C         141.6982  137.7792  163.4584 C.3     1  UNL1        0.0248
      9 C         141.7657  138.9106  162.4758 C.3     1  UNL1        0.0801
     10 C         142.0117  140.3094  162.9585 C.3     1  UNL1        0.0458
     11 N         141.5872  138.6433  161.0107 N.am    1  UNL1       -0.2783
     12 C         140.2210  138.7171  160.3958 C.3     1  UNL1        0.1107
     13 C         140.0425  138.4497  158.9307 C.3     1  UNL1        0.0942
     14 N         141.2303  138.1085  158.0804 N.3     1  UNL1       -0.2632
     15 C         142.5964  138.0347  158.6953 C.3     1  UNL1        0.1587
     16 C         142.7749  138.3021  160.1604 C.2     1  UNL1        0.2420
     17 O         144.1411  138.2283  160.7753 O.2     1  UNL1       -0.2734
     18 C         141.0518  137.8412  156.6152 C.3     1  UNL1        0.0773
     19 C         142.1141  137.1070  155.8520 C.3     1  UNL1        0.0437
     20 C         142.2469  135.6196  155.9936 C.ar    1  UNL1       -0.0207
     21 C         143.1898  135.0440  157.0083 C.ar    1  UNL1       -0.0034
     22 C         143.3226  133.5566  157.1499 C.ar    1  UNL1        0.0111
     23 C         142.5125  132.6448  156.2768 C.ar    1  UNL1        0.0577
     24 CL        142.6453  131.1574  156.4184 Cl      1  UNL1       -0.0822
     25 C         141.5695  133.2204  155.2621 C.ar    1  UNL1        0.0111
     26 C         141.4367  134.7078  155.1205 C.ar    1  UNL1       -0.0034
     27 C         142.7256  141.3788  168.8191 C.3     1  UNL1        0.0991
     28 N         141.5279  141.4558  169.7188 N.3     1  UNL1       -0.2690
     29 C         139.1962  140.3099  169.7189 C.3     1  UNL1        0.0188
     30 C         140.6779  140.2402  169.9417 C.3     1  UNL1        0.0724
     31 C         141.1801  142.7486  170.3955 C.3     1  UNL1        0.0724
     32 C         140.4226  143.8060  169.6486 C.3     1  UNL1        0.0188
@<TRIPOS>BOND
     1    29    30    1
     2    30    28    1
     3    28    31    1
     4    31    32    1
     5    28    27    1
     6    27     1    1
     7     1     2   ar
     8     2     3   ar
     9     3     4   ar
    10     4     5   ar
    11     5     6   ar
    12     5     7    1
    13     7     8    1
    14     8     9    1
    15     9    11    1
    16    11    12    1
    17    12    13    1
    18    13    14    1
    19    14    18    1
    20    18    19    1
    21    19    20    1
    22    20    21   ar
    23    21    22   ar
    24    22    23   ar
    25    23    24    1
    26    23    25   ar
    27    25    26   ar
    28    14    15    1
    29    15    16    1
    30    16    17    2
    31     9    10    1
    32     6     1   ar
    33    16    11   am
    34    10     4    1
    35    26    20   ar
@<TRIPOS>MOLECULE
*****
 32 35 0 0 0
SMALL
GASTEIGER

@<TRIPOS>ATOM
      1 C         141.6744  139.9066  167.3738 C.ar    1  UNL1       -0.0065
      2 C         140.4019  139.9078  166.5795 C.ar    1  UNL1       -0.0033
      3 C         140.4467  139.7261  165.0912 C.ar    1  UNL1       -0.0048
      4 C         141.7638  139.5433  164.3972 C.ar    1  UNL1       -0.0245
      5 C         143.0362  139.5422  165.1914 C.ar    1  UNL1       -0.0263
      6 C         142.9915  139.7238  166.6797 C.ar    1  UNL1       -0.0075
      7 C         144.3534  139.3594  164.4974 C.3     1  UNL1        0.0277
      8 C         144.3981  139.1778  163.0091 C.3     1  UNL1        0.0248
      9 C         143.1256  139.1789  162.2149 C.3     1  UNL1        0.0801
     10 C         141.8085  139.3617  162.9089 C.3     1  UNL1        0.0458
     11 N         143.1703  138.9973  160.7266 N.am    1  UNL1       -0.2783
     12 C         142.7392  137.6965  160.1165 C.3     1  UNL1        0.1107
     13 C         142.7839  137.5149  158.6282 C.3     1  UNL1        0.0942
     14 N         143.2597  138.6340  157.7500 N.3     1  UNL1       -0.2632
     15 C         143.6909  139.9347  158.3601 C.3     1  UNL1        0.1587
     16 C         143.6462  140.1163  159.8484 C.2     1  UNL1        0.2420
     17 O         144.0773  141.4170  160.4585 O.2     1  UNL1       -0.2734
     18 C         143.3045  138.4524  156.2617 C.3     1  UNL1        0.0773
     19 C         144.0080  137.2661  155.6717 C.3     1  UNL1        0.0437
     20 C         143.2806  135.9634  155.5169 C.ar    1  UNL1       -0.0207
     21 C         143.6946  134.7722  156.3289 C.ar    1  UNL1       -0.0034
     22 C         142.9673  133.4695  156.1741 C.ar    1  UNL1        0.0111
     23 C         141.8260  133.3580  155.2072 C.ar    1  UNL1        0.0577
     24 CL        141.0987  132.0553  155.0524 Cl      1  UNL1       -0.0822
     25 C         141.4119  134.5493  154.3951 C.ar    1  UNL1        0.0111
     26 C         142.1393  135.8520  154.5499 C.ar    1  UNL1       -0.0034
     27 C         141.6296  140.0882  168.8621 C.3     1  UNL1        0.0991
     28 N         141.2219  141.4090  169.4445 N.3     1  UNL1       -0.2690
     29 C         143.6755  142.2149  169.7280 C.3     1  UNL1        0.0188
     30 C         142.2194  142.5248  169.5441 C.3     1  UNL1        0.0724
     31 C         139.8166  141.6140  169.9275 C.3     1  UNL1        0.0724
     32 C         138.8811  140.4460  170.0306 C.3     1  UNL1        0.0188
@<TRIPOS>BOND
     1    29    30    1
     2    30    28    1
     3    28    31    1
     4    31    32    1
     5    28    27    1
     6    27     1    1
     7     1     2   ar
     8     2     3   ar
     9     3     4   ar
    10     4     5   ar
    11     5     6   ar
    12     5     7    1
    13     7     8    1
    14     8     9    1
    15     9    11    1
    16    11    12    1
    17    12    13    1
    18    13    14    1
    19    14    18    1
    20    18    19    1
    21    19    20    1
    22    20    21   ar
    23    21    22   ar
    24    22    23   ar
    25    23    24    1
    26    23    25   ar
    27    25    26   ar
    28    14    15    1
    29    15    16    1
    30    16    17    2
    31     9    10    1
    32     6     1   ar
    33    16    11   am
    34    10     4    1
    35    26    20   ar
@<TRIPOS>MOLECULE
*****
 32 35 0 0 0
SMALL
GASTEIGER

@<TRIPOS>ATOM
      1 C         142.7056  141.7109  166.8126 C.ar    1  UNL1       -0.0065
      2 C         142.6356  142.7579  165.7408 C.ar    1  UNL1       -0.0033
      3 C         142.4114  142.3559  164.3131 C.ar    1  UNL1       -0.0048
      4 C         142.2574  140.9069  163.9573 C.ar    1  UNL1       -0.0245
      5 C         142.3274  139.8599  165.0291 C.ar    1  UNL1       -0.0263
      6 C         142.5516  140.2619  166.4567 C.ar    1  UNL1       -0.0075
      7 C         142.1734  138.4108  164.6733 C.3     1  UNL1        0.0277
      8 C         141.9493  138.0088  163.2456 C.3     1  UNL1        0.0248
      9 C         141.8792  139.0559  162.1738 C.3     1  UNL1        0.0801
     10 C         142.0333  140.5049  162.5296 C.3     1  UNL1        0.0458
     11 N         141.6551  138.6539  160.7462 N.am    1  UNL1       -0.2783
     12 C         142.8237  138.3045  159.8731 C.3     1  UNL1        0.1107
     13 C         142.5996  137.9025  158.4454 C.3     1  UNL1        0.0942
     14 N         141.2068  137.8500  157.8909 N.3     1  UNL1       -0.2632
     15 C         140.0383  138.1994  158.7639 C.3     1  UNL1        0.1587
     16 C         140.2624  138.6014  160.1916 C.2     1  UNL1        0.2420
     17 O         139.0938  138.9509  161.0646 O.2     1  UNL1       -0.2734
     18 C         140.9827  137.4480  156.4632 C.3     1  UNL1        0.0773
     19 C         142.0531  136.7101  155.7149 C.3     1  UNL1        0.0437
     20 C         142.2354  135.2362  155.9257 C.ar    1  UNL1       -0.0207
     21 C         141.4209  134.2586  155.1315 C.ar    1  UNL1       -0.0034
     22 C         141.6032  132.7847  155.3423 C.ar    1  UNL1        0.0111
     23 C         142.6000  132.2884  156.3472 C.ar    1  UNL1        0.0577
     24 CL        142.7823  130.8145  156.5580 Cl      1  UNL1       -0.0822
     25 C         143.4146  133.2661  157.1415 C.ar    1  UNL1        0.0111
     26 C         143.2323  134.7399  156.9307 C.ar    1  UNL1       -0.0034
     27 C         142.9297  142.1129  168.2402 C.3     1  UNL1        0.0991
     28 N         142.0025  141.6217  169.3121 N.3     1  UNL1       -0.2690
     29 C         140.3811  143.6323  169.5927 C.3     1  UNL1        0.0188
     30 C         140.6059  142.1616  169.4009 C.3     1  UNL1        0.0724
     31 C         142.4719  140.5906  170.2953 C.3     1  UNL1        0.0724
     32 C         142.3520  139.1319  169.9669 C.3     1  UNL1        0.0188
@<TRIPOS>BOND
     1    29    30    1
     2    30    28    1
     3    28    31    1
     4    31    32    1
     5    28    27    1
     6    27     1    1
     7     1     2   ar
     8     2     3   ar
     9     3     4   ar
    10     4     5   ar
    11     5     6   ar
    12     5     7    1
    13     7     8    1
    14     8     9    1
    15     9    11    1
    16    11    12    1
    17    12    13    1
    18    13    14    1
    19    14    18    1
    20    18    19    1
    21    19    20    1
    22    20    21   ar
    23    21    22   ar
    24    22    23   ar
    25    23    24    1
    26    23    25   ar
    27    25    26   ar
    28    14    15    1
    29    15    16    1
    30    16    17    2
    31     9    10    1
    32     6     1   ar
    33    16    11   am
    34    10     4    1
    35    26    20   ar
@<TRIPOS>MOLECULE
*****
 32 35 0 0 0
SMALL
GASTEIGER

@<TRIPOS>ATOM
      1 C         140.8439  142.7615  166.9839 C.ar    1  UNL1       -0.0065
      2 C         142.0825  142.3726  166.2326 C.ar    1  UNL1       -0.0033
      3 C         142.1671  142.6069  164.7534 C.ar    1  UNL1       -0.0048
      4 C         141.0130  143.2300  164.0256 C.ar    1  UNL1       -0.0245
      5 C         139.7744  143.6189  164.7769 C.ar    1  UNL1       -0.0263
      6 C         139.6898  143.3846  166.2561 C.ar    1  UNL1       -0.0075
      7 C         138.6202  144.2421  164.0491 C.3     1  UNL1        0.0277
      8 C         138.7048  144.4764  162.5699 C.3     1  UNL1        0.0248
      9 C         139.9435  144.0875  161.8186 C.3     1  UNL1        0.0801
     10 C         141.0976  143.4643  162.5464 C.3     1  UNL1        0.0458
     11 N         140.0280  144.3218  160.3394 N.am    1  UNL1       -0.2783
     12 C         140.6352  145.5889  159.8142 C.3     1  UNL1        0.1107
     13 C         140.7198  145.8232  158.3351 C.3     1  UNL1        0.0942
     14 N         140.1972  144.7903  157.3810 N.3     1  UNL1       -0.2632
     15 C         139.5900  143.5232  157.9062 C.3     1  UNL1        0.1587
     16 C         139.5055  143.2890  159.3854 C.2     1  UNL1        0.2420
     17 O         138.8983  142.0219  159.9105 O.2     1  UNL1       -0.2734
     18 C         140.2817  145.0246  155.9019 C.3     1  UNL1        0.0773
     19 C         139.1909  145.7762  155.1980 C.3     1  UNL1        0.0437
     20 C         139.2577  147.2709  155.0922 C.ar    1  UNL1       -0.0207
     21 C         138.5669  148.1266  156.1123 C.ar    1  UNL1       -0.0034
     22 C         138.6337  149.6214  156.0065 C.ar    1  UNL1        0.0111
     23 C         139.3913  150.2605  154.8807 C.ar    1  UNL1        0.0577
     24 CL        139.4581  151.7553  154.7749 Cl      1  UNL1       -0.0822
     25 C         140.0821  149.4048  153.8605 C.ar    1  UNL1        0.0111
     26 C         140.0153  147.9100  153.9663 C.ar    1  UNL1       -0.0034
     27 C         140.7593  142.5272  168.4631 C.3     1  UNL1        0.0991
     28 N         141.5528  141.4215  169.0939 N.3     1  UNL1       -0.2690
     29 C         142.5891  139.1979  168.2385 C.3     1  UNL1        0.0188
     30 C         141.3853  140.0102  168.6143 C.3     1  UNL1        0.0724
     31 C         142.5138  141.7272  170.2044 C.3     1  UNL1        0.0724
     32 C         143.8003  142.4393  169.9081 C.3     1  UNL1        0.0188
@<TRIPOS>BOND
     1    29    30    1
     2    30    28    1
     3    28    31    1
     4    31    32    1
     5    28    27    1
     6    27     1    1
     7     1     2   ar
     8     2     3   ar
     9     3     4   ar
    10     4     5   ar
    11     5     6   ar
    12     5     7    1
    13     7     8    1
    14     8     9    1
    15     9    11    1
    16    11    12    1
    17    12    13    1
    18    13    14    1
    19    14    18    1
    20    18    19    1
    21    19    20    1
    22    20    21   ar
    23    21    22   ar
    24    22    23   ar
    25    23    24    1
    26    23    25   ar
    27    25    26   ar
    28    14    15    1
    29    15    16    1
    30    16    17    2
    31     9    10    1
    32     6     1   ar
    33    16    11   am
    34    10     4    1
    35    26    20   ar
@<TRIPOS>MOLECULE
*****
 32 35 0 0 0
SMALL
GASTEIGER

@<TRIPOS>ATOM
      1 C         139.6717  140.2914  168.1743 C.ar    1  UNL1       -0.0065
      2 C         138.8318  139.5103  167.2076 C.ar    1  UNL1       -0.0033
      3 C         139.2384  139.4158  165.7669 C.ar    1  UNL1       -0.0048
      4 C         140.4849  140.1025  165.2928 C.ar    1  UNL1       -0.0245
      5 C         141.3248  140.8835  166.2595 C.ar    1  UNL1       -0.0263
      6 C         140.9182  140.9780  167.7002 C.ar    1  UNL1       -0.0075
      7 C         142.5713  141.5702  165.7854 C.3     1  UNL1        0.0277
      8 C         142.9779  141.4758  164.3446 C.3     1  UNL1        0.0248
      9 C         142.1380  140.6946  163.3780 C.3     1  UNL1        0.0801
     10 C         140.8915  140.0080  163.8521 C.3     1  UNL1        0.0458
     11 N         142.5446  140.6001  161.9372 N.am    1  UNL1       -0.2783
     12 C         142.2001  141.7081  160.9865 C.3     1  UNL1        0.1107
     13 C         142.6067  141.6137  159.5458 C.3     1  UNL1        0.0942
     14 N         143.3577  140.4112  159.0557 N.3     1  UNL1       -0.2632
     15 C         143.7022  139.3033  160.0064 C.3     1  UNL1        0.1587
     16 C         143.2956  139.3978  161.4472 C.2     1  UNL1        0.2420
     17 O         143.6400  138.2899  162.3978 O.2     1  UNL1       -0.2734
     18 C         143.7643  140.3167  157.6150 C.3     1  UNL1        0.0773
     19 C         142.8960  139.5818  156.6372 C.3     1  UNL1        0.0437
     20 C         143.1097  138.1165  156.3983 C.ar    1  UNL1       -0.0207
     21 C         142.2532  137.1084  157.1055 C.ar    1  UNL1       -0.0034
     22 C         142.4669  135.6431  156.8665 C.ar    1  UNL1        0.0111
     23 C         143.5371  135.1858  155.9203 C.ar    1  UNL1        0.0577
     24 CL        143.7509  133.7205  155.6813 Cl      1  UNL1       -0.0822
     25 C         144.3937  136.1938  155.2129 C.ar    1  UNL1        0.0111
     26 C         144.1800  137.6592  155.4519 C.ar    1  UNL1       -0.0034
     27 C         139.2651  140.3859  169.6150 C.3     1  UNL1        0.0991
     28 N         140.0102  141.2952  170.5466 N.3     1  UNL1       -0.2690
     29 C         142.5103  140.6512  170.8380 C.3     1  UNL1        0.0188
     30 C         141.1214  140.7523  171.3955 C.3     1  UNL1        0.0724
     31 C         139.6443  142.7476  170.6292 C.3     1  UNL1        0.0724
     32 C         140.4270  143.7637  169.8515 C.3     1  UNL1        0.0188
@<TRIPOS>BOND
     1    29    30    1
     2    30    28    1
     3    28    31    1
     4    31    32    1
     5    28    27    1
     6    27     1    1
     7     1     2   ar
     8     2     3   ar
     9     3     4   ar
    10     4     5   ar
    11     5     6   ar
    12     5     7    1
    13     7     8    1
    14     8     9    1
    15     9    11    1
    16    11    12    1
    17    12    13    1
    18    13    14    1
    19    14    18    1
    20    18    19    1
    21    19    20    1
    22    20    21   ar
    23    21    22   ar
    24    22    23   ar
    25    23    24    1
    26    23    25   ar
    27    25    26   ar
    28    14    15    1
    29    15    16    1
    30    16    17    2
    31     9    10    1
    32     6     1   ar
    33    16    11   am
    34    10     4    1
    35    26    20   ar
@<TRIPOS>MOLECULE
*****
 32 35 0 0 0
SMALL
GASTEIGER

@<TRIPOS>ATOM
      1 C         142.7389  140.4463  167.7787 C.ar    1  UNL1       -0.0065
      2 C         142.9935  139.0060  167.4462 C.ar    1  UNL1       -0.0033
      3 C         142.9223  138.5412  166.0218 C.ar    1  UNL1       -0.0048
      4 C         142.5966  139.5168  164.9299 C.ar    1  UNL1       -0.0245
      5 C         142.3420  140.9571  165.2625 C.ar    1  UNL1       -0.0263
      6 C         142.4132  141.4218  166.6869 C.ar    1  UNL1       -0.0075
      7 C         142.0162  141.9327  164.1706 C.3     1  UNL1        0.0277
      8 C         141.9451  141.4679  162.7462 C.3     1  UNL1        0.0248
      9 C         142.1996  140.0275  162.4137 C.3     1  UNL1        0.0801
     10 C         142.5254  139.0520  163.5055 C.3     1  UNL1        0.0458
     11 N         142.1285  139.5628  160.9893 N.am    1  UNL1       -0.2783
     12 C         143.3060  139.7508  160.0793 C.3     1  UNL1        0.1107
     13 C         143.2349  139.2860  158.6549 C.3     1  UNL1        0.0942
     14 N         141.9861  138.6332  158.1405 N.3     1  UNL1       -0.2632
     15 C         140.8086  138.4452  159.0505 C.3     1  UNL1        0.1587
     16 C         140.8798  138.9100  160.4749 C.2     1  UNL1        0.2420
     17 O         139.7023  138.7220  161.3849 O.2     1  UNL1       -0.2734
     18 C         141.9149  138.1685  156.7161 C.3     1  UNL1        0.0773
     19 C         141.0014  137.0396  156.3403 C.3     1  UNL1        0.0437
     20 C         141.5679  135.7777  155.7602 C.ar    1  UNL1       -0.0207
     21 C         141.0801  135.2772  154.4330 C.ar    1  UNL1       -0.0034
     22 C         141.6467  134.0153  153.8530 C.ar    1  UNL1        0.0111
     23 C         142.7010  133.2537  154.6001 C.ar    1  UNL1        0.0577
     24 CL        143.2676  131.9917  154.0201 Cl      1  UNL1       -0.0822
     25 C         143.1889  133.7541  155.9274 C.ar    1  UNL1        0.0111
     26 C         142.6223  135.0161  156.5075 C.ar    1  UNL1       -0.0034
     27 C         142.8101  140.9110  169.2032 C.3     1  UNL1        0.0991
     28 N         141.6270  141.5853  169.8321 N.3     1  UNL1       -0.2690
     29 C         140.4062  143.8784  169.7929 C.3     1  UNL1        0.0188
     30 C         141.6408  143.0683  170.0570 C.3     1  UNL1        0.0724
     31 C         140.4300  140.7765  170.2362 C.3     1  UNL1        0.0724
     32 C         139.4065  140.3879  169.2108 C.3     1  UNL1        0.0188
@<TRIPOS>BOND
     1    29    30    1
     2    30    28    1
     3    28    31    1
     4    31    32    1
     5    28    27    1
     6    27     1    1
     7     1     2   ar
     8     2     3   ar
     9     3     4   ar
    10     4     5   ar
    11     5     6   ar
    12     5     7    1
    13     7     8    1
    14     8     9    1
    15     9    11    1
    16    11    12    1
    17    12    13    1
    18    13    14    1
    19    14    18    1
    20    18    19    1
    21    19    20    1
    22    20    21   ar
    23    21    22   ar
    24    22    23   ar
    25    23    24    1
    26    23    25   ar
    27    25    26   ar
    28    14    15    1
    29    15    16    1
    30    16    17    2
    31     9    10    1
    32     6     1   ar
    33    16    11   am
    34    10     4    1
    35    26    20   ar
@<TRIPOS>MOLECULE
*****
 32 35 0 0 0
SMALL
GASTEIGER

@<TRIPOS>ATOM
      1 C         142.7248  140.9319  166.5566 C.ar    1  UNL1       -0.0065
      2 C         142.7706  139.4354  166.4671 C.ar    1  UNL1       -0.0033
      3 C         142.5590  138.7561  165.1465 C.ar    1  UNL1       -0.0048
      4 C         142.3015  139.5735  163.9155 C.ar    1  UNL1       -0.0245
      5 C         142.2556  141.0701  164.0050 C.ar    1  UNL1       -0.0263
      6 C         142.4673  141.7493  165.3255 C.ar    1  UNL1       -0.0075
      7 C         141.9981  141.8875  162.7739 C.3     1  UNL1        0.0277
      8 C         141.7864  141.2083  161.4533 C.3     1  UNL1        0.0248
      9 C         141.8323  139.7116  161.3639 C.3     1  UNL1        0.0801
     10 C         142.0898  138.8943  162.5949 C.3     1  UNL1        0.0458
     11 N         141.6206  139.0324  160.0433 N.am    1  UNL1       -0.2783
     12 C         142.8007  138.5968  159.2263 C.3     1  UNL1        0.1107
     13 C         142.5891  137.9175  157.9057 C.3     1  UNL1        0.0942
     14 N         141.1972  137.6739  157.4022 N.3     1  UNL1       -0.2632
     15 C         140.0171  138.1096  158.2193 C.3     1  UNL1        0.1587
     16 C         140.2288  138.7888  159.5398 C.2     1  UNL1        0.2420
     17 O         139.0487  139.2244  160.3568 O.2     1  UNL1       -0.2734
     18 C         140.9855  136.9947  156.0817 C.3     1  UNL1        0.0773
     19 C         142.1042  136.2221  155.4478 C.3     1  UNL1        0.0437
     20 C         142.3762  134.8100  155.8741 C.ar    1  UNL1       -0.0207
     21 C         141.5751  133.6833  155.2920 C.ar    1  UNL1       -0.0034
     22 C         141.8471  132.2711  155.7184 C.ar    1  UNL1        0.0111
     23 C         142.9201  131.9856  156.7268 C.ar    1  UNL1        0.0577
     24 CL        143.1920  130.5734  157.1532 Cl      1  UNL1       -0.0822
     25 C         143.7212  133.1123  157.3090 C.ar    1  UNL1        0.0111
     26 C         143.4493  134.5244  156.8827 C.ar    1  UNL1       -0.0034
     27 C         142.9365  141.6112  167.8771 C.3     1  UNL1        0.0991
     28 N         141.9043  141.4871  168.9583 N.3     1  UNL1       -0.2690
     29 C         142.2911  139.1390  170.0009 C.3     1  UNL1        0.0188
     30 C         142.1734  140.6263  170.1569 C.3     1  UNL1        0.0724
     31 C         140.6029  142.2239  168.8410 C.3     1  UNL1        0.0724
     32 C         140.4202  143.5391  169.5386 C.3     1  UNL1        0.0188
@<TRIPOS>BOND
     1    29    30    1
     2    30    28    1
     3    28    31    1
     4    31    32    1
     5    28    27    1
     6    27     1    1
     7     1     2   ar
     8     2     3   ar
     9     3     4   ar
    10     4     5   ar
    11     5     6   ar
    12     5     7    1
    13     7     8    1
    14     8     9    1
    15     9    11    1
    16    11    12    1
    17    12    13    1
    18    13    14    1
    19    14    18    1
    20    18    19    1
    21    19    20    1
    22    20    21   ar
    23    21    22   ar
    24    22    23   ar
    25    23    24    1
    26    23    25   ar
    27    25    26   ar
    28    14    15    1
    29    15    16    1
    30    16    17    2
    31     9    10    1
    32     6     1   ar
    33    16    11   am
    34    10     4    1
    35    26    20   ar
