@<TRIPOS>MOLECULE
*****
 40 44 0 0 0
SMALL
GASTEIGER

@<TRIPOS>ATOM
      1 N         139.7648  141.8708  159.2569 N.am    1  UNL1       -0.2766
      2 C         138.8867  141.8224  160.4720 C.2     1  UNL1        0.2673
      3 O         137.9589  142.9620  160.7727 O.2     1  UNL1       -0.2682
      4 H         140.3737  141.1229  159.0595 H       1  UNL1        0.1553
      5 C         140.1392  144.4556  158.6877 C.ar    1  UNL1        0.1688
      6 N         139.9188  145.3186  157.4809 N.ar    1  UNL1       -0.1632
      7 N         139.3584  144.4553  156.3897 N.ar    1  UNL1       -0.2459
      8 C         138.9888  144.9089  155.0085 C.3     1  UNL1        0.1538
      9 C         139.2325  143.0586  156.9222 C.ar    1  UNL1        0.1115
     10 C         139.7151  143.0588  158.3424 C.ar    1  UNL1        0.0937
     11 N         139.7768  145.5325  161.0242 N.am    1  UNL1       -0.2995
     12 C         140.6876  144.9095  160.0080 C.2     1  UNL1        0.2666
     13 O         142.1467  144.7406  160.3122 O.2     1  UNL1       -0.2684
     14 H         138.8192  145.6433  160.8245 H       1  UNL1        0.1498
     15 C         140.3251  145.9864  162.3444 C.3     1  UNL1        0.0911
     16 C         143.0667  142.6262  165.2067 C.3     1  UNL1        0.0896
     17 N         141.7806  143.3442  164.9233 N.3     1  UNL1       -0.2715
     18 C         140.5792  143.1003  165.7876 C.3     1  UNL1        0.0721
     19 C         139.2931  143.8184  165.5042 C.3     1  UNL1        0.0174
     20 C         139.2084  144.7804  164.3565 C.3     1  UNL1        0.0045
     21 C         140.4098  145.0244  163.4922 C.3     1  UNL1        0.0356
     22 C         141.6959  144.3063  163.7756 C.3     1  UNL1        0.0738
     23 C         138.9364  140.6344  161.3864 C.ar    1  UNL1        0.1347
     24 C         137.9710  139.5019  161.1980 C.ar    1  UNL1        0.0238
     25 C         138.0207  138.3139  162.1124 C.ar    1  UNL1        0.0032
     26 C         139.0358  138.2584  163.2153 C.ar    1  UNL1        0.0192
     27 C         140.0012  139.3909  163.4038 C.ar    1  UNL1        0.0816
     28 N         139.9515  140.5789  162.4894 N.ar    1  UNL1       -0.2408
     29 C         141.0163  139.3352  164.5067 C.ar    1  UNL1        0.0220
     30 C         142.4336  138.9496  164.2029 C.ar    1  UNL1        0.0223
     31 C         143.4487  138.8940  165.3059 C.ar    1  UNL1        0.1003
     32 N         143.0464  139.2240  166.7128 N.ar    1  UNL1       -0.2294
     33 C         141.6290  139.6097  167.0166 C.ar    1  UNL1        0.1286
     34 C         140.6140  139.6653  165.9136 C.ar    1  UNL1        0.0356
     35 N         141.2266  139.9398  168.4234 N.pl3   1  UNL1       -0.3181
     36 H         141.7810  139.6359  169.1782 H       1  UNL1        0.1482
     37 C         139.9796  140.7328  168.6803 C.3     1  UNL1        0.0881
     38 C         140.0588  142.0378  169.4157 C.3     1  UNL1        0.0196
     39 C         139.7653  142.8621  170.6340 C.3     1  UNL1        0.0017
     40 C         140.4894  143.4736  169.4712 C.3     1  UNL1        0.0017
@<TRIPOS>BOND
     1    16    17    1
     2    17    18    1
     3    18    19    1
     4    19    20    1
     5    20    21    1
     6    21    15    1
     7    15    11    1
     8    11    12   am
     9    12    13    2
    10    12     5    1
    11     5     6   ar
    12     6     7   ar
    13     7     8    1
    14     7     9   ar
    15     9    10   ar
    16    10     1    1
    17     1     2   am
    18     2     3    2
    19     2    23    1
    20    23    24   ar
    21    24    25   ar
    22    25    26   ar
    23    26    27   ar
    24    27    29    1
    25    29    30   ar
    26    30    31   ar
    27    31    32   ar
    28    32    33   ar
    29    33    35    1
    30    35    37    1
    31    37    38    1
    32    38    39    1
    33    39    40    1
    34    33    34   ar
    35    27    28   ar
    36    21    22    1
    37    22    17    1
    38    10     5   ar
    39    28    23   ar
    40    34    29   ar
    41    40    38    1
    42    11    14    1
    43     1     4    1
    44    35    36    1
@<TRIPOS>MOLECULE
*****
 40 44 0 0 0
SMALL
GASTEIGER

@<TRIPOS>ATOM
      1 N         141.0575  142.7965  160.3766 N.am    1  UNL1       -0.2766
      2 C         140.8791  143.6176  161.6191 C.2     1  UNL1        0.2673
      3 O         139.6804  144.5077  161.7640 O.2     1  UNL1       -0.2682
      4 H         141.8442  142.2123  160.2814 H       1  UNL1        0.1553
      5 C         138.6940  142.1981  159.2807 C.ar    1  UNL1        0.1688
      6 N         138.0079  142.5341  157.9898 N.ar    1  UNL1       -0.1632
      7 N         138.9273  143.4090  157.1903 N.ar    1  UNL1       -0.2459
      8 C         138.6424  143.9791  155.8324 C.3     1  UNL1        0.1538
      9 C         140.1816  143.6138  157.9871 C.ar    1  UNL1        0.1115
     10 C         140.0374  142.8654  159.2790 C.ar    1  UNL1        0.0937
     11 N         138.0212  141.8935  161.7716 N.am    1  UNL1       -0.2995
     12 C         138.1349  141.3447  160.3802 C.2     1  UNL1        0.2666
     13 O         137.6893  139.9424  160.0884 O.2     1  UNL1       -0.2684
     14 H         138.3137  142.8138  161.9632 H       1  UNL1        0.1498
     15 C         137.4621  141.0400  162.8711 C.3     1  UNL1        0.0911
     16 C         141.4162  137.6811  163.1585 C.3     1  UNL1        0.0896
     17 N         140.3533  138.4971  163.8326 N.3     1  UNL1       -0.2715
     18 C         140.2044  138.4495  165.3244 C.3     1  UNL1        0.0721
     19 C         139.1415  139.2655  165.9985 C.3     1  UNL1        0.0174
     20 C         138.2274  140.1290  165.1808 C.3     1  UNL1        0.0045
     21 C         138.3762  140.1765  163.6890 C.3     1  UNL1        0.0356
     22 C         139.4392  139.3605  163.0149 C.3     1  UNL1        0.0738
     23 C         141.8992  143.5486  162.7166 C.ar    1  UNL1        0.1347
     24 C         142.8299  144.7018  162.9491 C.ar    1  UNL1        0.0238
     25 C         143.8500  144.6328  164.0466 C.ar    1  UNL1        0.0032
     26 C         143.9394  143.4107  164.9117 C.ar    1  UNL1        0.0192
     27 C         143.0087  142.2575  164.6792 C.ar    1  UNL1        0.0816
     28 N         141.9886  142.3265  163.5817 N.ar    1  UNL1       -0.2408
     29 C         143.0982  141.0354  165.5443 C.ar    1  UNL1        0.0220
     30 C         143.8172  139.8161  165.0480 C.ar    1  UNL1        0.0223
     31 C         143.9067  138.5940  165.9132 C.ar    1  UNL1        0.1003
     32 N         143.2771  138.5912  167.2747 N.ar    1  UNL1       -0.2294
     33 C         142.5581  139.8105  167.7710 C.ar    1  UNL1        0.1286
     34 C         142.4686  141.0325  166.9058 C.ar    1  UNL1        0.0356
     35 N         141.9285  139.8077  169.1325 N.pl3   1  UNL1       -0.3181
     36 H         142.4297  139.4615  169.9059 H       1  UNL1        0.1482
     37 C         140.5353  140.3325  169.3155 C.3     1  UNL1        0.0881
     38 C         140.3141  141.7868  169.6089 C.3     1  UNL1        0.0196
     39 C         139.8363  142.8675  170.5329 C.3     1  UNL1        0.0017
     40 C         140.4088  143.2249  169.1933 C.3     1  UNL1        0.0017
@<TRIPOS>BOND
     1    16    17    1
     2    17    18    1
     3    18    19    1
     4    19    20    1
     5    20    21    1
     6    21    15    1
     7    15    11    1
     8    11    12   am
     9    12    13    2
    10    12     5    1
    11     5     6   ar
    12     6     7   ar
    13     7     8    1
    14     7     9   ar
    15     9    10   ar
    16    10     1    1
    17     1     2   am
    18     2     3    2
    19     2    23    1
    20    23    24   ar
    21    24    25   ar
    22    25    26   ar
    23    26    27   ar
    24    27    29    1
    25    29    30   ar
    26    30    31   ar
    27    31    32   ar
    28    32    33   ar
    29    33    35    1
    30    35    37    1
    31    37    38    1
    32    38    39    1
    33    39    40    1
    34    33    34   ar
    35    27    28   ar
    36    21    22    1
    37    22    17    1
    38    10     5   ar
    39    28    23   ar
    40    34    29   ar
    41    40    38    1
    42    11    14    1
    43     1     4    1
    44    35    36    1
@<TRIPOS>MOLECULE
*****
 40 44 0 0 0
SMALL
GASTEIGER

@<TRIPOS>ATOM
      1 N         142.1978  144.2168  160.5770 N.am    1  UNL1       -0.2766
      2 C         141.7754  144.6534  161.9485 C.2     1  UNL1        0.2673
      3 O         140.5003  145.4219  162.1313 O.2     1  UNL1       -0.2682
      4 H         143.0347  143.7124  160.4570 H       1  UNL1        0.1553
      5 C         140.0071  143.9508  159.0687 C.ar    1  UNL1        0.1688
      6 N         139.5158  144.5693  157.7935 N.ar    1  UNL1       -0.1632
      7 N         140.5502  145.5493  157.3251 N.ar    1  UNL1       -0.2459
      8 C         140.4684  146.3939  156.0881 C.3     1  UNL1        0.1538
      9 C         141.6809  145.5366  158.3108 C.ar    1  UNL1        0.1115
     10 C         141.3451  144.5487  159.3884 C.ar    1  UNL1        0.0937
     11 N         138.4724  143.3304  161.0712 N.am    1  UNL1       -0.2995
     12 C         139.2867  142.9162  159.8815 C.2     1  UNL1        0.2666
     13 O         139.3807  141.4674  159.5046 O.2     1  UNL1       -0.2684
     14 H         138.4107  144.2813  161.3186 H       1  UNL1        0.1498
     15 C         137.7521  142.2958  161.8840 C.3     1  UNL1        0.0911
     16 C         138.3966  138.7254  165.6038 C.3     1  UNL1        0.0896
     17 N         138.5952  140.1228  165.0961 N.3     1  UNL1       -0.2715
     18 C         139.3146  141.1324  165.9405 C.3     1  UNL1        0.0721
     19 C         139.5132  142.5299  165.4327 C.3     1  UNL1        0.0174
     20 C         138.9924  142.9176  164.0806 C.3     1  UNL1        0.0045
     21 C         138.2729  141.9080  163.2362 C.3     1  UNL1        0.0356
     22 C         138.0744  140.5106  163.7439 C.3     1  UNL1        0.0738
     23 C         142.6281  144.3216  163.1371 C.ar    1  UNL1        0.1347
     24 C         143.5742  145.3454  163.6907 C.ar    1  UNL1        0.0238
     25 C         144.4269  145.0136  164.8793 C.ar    1  UNL1        0.0032
     26 C         144.3334  143.6579  165.5143 C.ar    1  UNL1        0.0192
     27 C         143.3873  142.6340  164.9607 C.ar    1  UNL1        0.0816
     28 N         142.5346  142.9658  163.7721 N.ar    1  UNL1       -0.2408
     29 C         143.2938  141.2783  165.5957 C.ar    1  UNL1        0.0220
     30 C         143.6796  140.0565  164.8158 C.ar    1  UNL1        0.0223
     31 C         143.5861  138.7007  165.4509 C.ar    1  UNL1        0.1003
     32 N         143.1070  138.5669  166.8660 N.ar    1  UNL1       -0.2294
     33 C         142.7212  139.7887  167.6460 C.ar    1  UNL1        0.1286
     34 C         142.8147  141.1443  167.0109 C.ar    1  UNL1        0.0356
     35 N         142.2421  139.6548  169.0611 N.pl3   1  UNL1       -0.3181
     36 H         142.8587  139.3425  169.7622 H       1  UNL1        0.1482
     37 C         140.8234  139.9969  169.4080 C.3     1  UNL1        0.0881
     38 C         140.4399  141.4217  169.6779 C.3     1  UNL1        0.0196
     39 C         140.5637  142.8826  169.3609 C.3     1  UNL1        0.0017
     40 C         139.6520  142.4287  170.4622 C.3     1  UNL1        0.0017
@<TRIPOS>BOND
     1    16    17    1
     2    17    18    1
     3    18    19    1
     4    19    20    1
     5    20    21    1
     6    21    15    1
     7    15    11    1
     8    11    12   am
     9    12    13    2
    10    12     5    1
    11     5     6   ar
    12     6     7   ar
    13     7     8    1
    14     7     9   ar
    15     9    10   ar
    16    10     1    1
    17     1     2   am
    18     2     3    2
    19     2    23    1
    20    23    24   ar
    21    24    25   ar
    22    25    26   ar
    23    26    27   ar
    24    27    29    1
    25    29    30   ar
    26    30    31   ar
    27    31    32   ar
    28    32    33   ar
    29    33    35    1
    30    35    37    1
    31    37    38    1
    32    38    39    1
    33    39    40    1
    34    33    34   ar
    35    27    28   ar
    36    21    22    1
    37    22    17    1
    38    10     5   ar
    39    28    23   ar
    40    34    29   ar
    41    40    38    1
    42    11    14    1
    43     1     4    1
    44    35    36    1
@<TRIPOS>MOLECULE
*****
 40 44 0 0 0
SMALL
GASTEIGER

@<TRIPOS>ATOM
      1 N         139.6199  142.0352  159.1421 N.am    1  UNL1       -0.2766
      2 C         138.7133  141.9878  160.3362 C.2     1  UNL1        0.2673
      3 O         137.8598  143.1732  160.6773 O.2     1  UNL1       -0.2682
      4 H         140.1800  141.2571  158.9182 H       1  UNL1        0.1553
      5 C         140.1661  144.6175  158.7200 C.ar    1  UNL1        0.1688
      6 N         140.0403  145.5512  157.5529 N.ar    1  UNL1       -0.1632
      7 N         139.4696  144.7787  156.4007 N.ar    1  UNL1       -0.2459
      8 C         139.1772  145.3220  155.0334 C.3     1  UNL1        0.1538
      9 C         139.2426  143.3675  156.8558 C.ar    1  UNL1        0.1115
     10 C         139.6731  143.2679  158.2892 C.ar    1  UNL1        0.0937
     11 N         139.8146  145.6918  161.0594 N.am    1  UNL1       -0.2995
     12 C         140.6924  144.9713  160.0793 C.2     1  UNL1        0.2666
     13 O         142.0966  144.6046  160.4587 O.2     1  UNL1       -0.2684
     14 H         138.8930  145.9324  160.8105 H       1  UNL1        0.1498
     15 C         140.3410  146.0455  162.4187 C.3     1  UNL1        0.0911
     16 C         142.9080  142.7261  165.4833 C.3     1  UNL1        0.0896
     17 N         141.6212  143.3612  165.0466 N.3     1  UNL1       -0.2715
     18 C         140.3312  142.9718  165.7054 C.3     1  UNL1        0.0721
     19 C         139.0444  143.6070  165.2686 C.3     1  UNL1        0.0174
     20 C         139.0476  144.6315  164.1731 C.3     1  UNL1        0.0045
     21 C         140.3377  145.0209  163.5143 C.3     1  UNL1        0.0356
     22 C         141.6245  144.3858  163.9510 C.3     1  UNL1        0.0738
     23 C         138.6601  140.7550  161.1891 C.ar    1  UNL1        0.1347
     24 C         138.1104  139.4774  160.6272 C.ar    1  UNL1        0.0238
     25 C         138.0572  138.2446  161.4801 C.ar    1  UNL1        0.0032
     26 C         138.5537  138.2895  162.8949 C.ar    1  UNL1        0.0192
     27 C         139.1033  139.5671  163.4567 C.ar    1  UNL1        0.0816
     28 N         139.1565  140.7998  162.6038 N.ar    1  UNL1       -0.2408
     29 C         139.5997  139.6118  164.8714 C.ar    1  UNL1        0.0220
     30 C         138.6354  139.8380  165.9979 C.ar    1  UNL1        0.0223
     31 C         139.1319  139.8827  167.4127 C.ar    1  UNL1        0.1003
     32 N         140.5927  139.7012  167.7010 N.ar    1  UNL1       -0.2294
     33 C         141.5570  139.4750  166.5745 C.ar    1  UNL1        0.1286
     34 C         141.0605  139.4303  165.1598 C.ar    1  UNL1        0.0356
     35 N         143.0178  139.2935  166.8628 N.pl3   1  UNL1       -0.3181
     36 H         143.3982  139.6274  167.7072 H       1  UNL1        0.1482
     37 C         143.8991  138.6032  165.8644 C.3     1  UNL1        0.0881
     38 C         144.4245  139.3581  164.6794 C.3     1  UNL1        0.0196
     39 C         145.3605  140.3762  164.0987 C.3     1  UNL1        0.0017
     40 C         144.3985  139.6475  163.2078 C.3     1  UNL1        0.0017
@<TRIPOS>BOND
     1    16    17    1
     2    17    18    1
     3    18    19    1
     4    19    20    1
     5    20    21    1
     6    21    15    1
     7    15    11    1
     8    11    12   am
     9    12    13    2
    10    12     5    1
    11     5     6   ar
    12     6     7   ar
    13     7     8    1
    14     7     9   ar
    15     9    10   ar
    16    10     1    1
    17     1     2   am
    18     2     3    2
    19     2    23    1
    20    23    24   ar
    21    24    25   ar
    22    25    26   ar
    23    26    27   ar
    24    27    29    1
    25    29    30   ar
    26    30    31   ar
    27    31    32   ar
    28    32    33   ar
    29    33    35    1
    30    35    37    1
    31    37    38    1
    32    38    39    1
    33    39    40    1
    34    33    34   ar
    35    27    28   ar
    36    21    22    1
    37    22    17    1
    38    10     5   ar
    39    28    23   ar
    40    34    29   ar
    41    40    38    1
    42    11    14    1
    43     1     4    1
    44    35    36    1
@<TRIPOS>MOLECULE
*****
 40 44 0 0 0
SMALL
GASTEIGER

@<TRIPOS>ATOM
      1 N         143.4173  140.9040  160.4368 N.am    1  UNL1       -0.2766
      2 C         143.9908  141.3942  161.7332 C.2     1  UNL1        0.2673
      3 O         144.7540  142.6848  161.7753 O.2     1  UNL1       -0.2682
      4 H         142.9163  140.0569  160.4091 H       1  UNL1        0.1553
      5 C         142.9025  142.9830  158.8374 C.ar    1  UNL1        0.1688
      6 N         143.3946  143.4355  157.4946 N.ar    1  UNL1       -0.1632
      7 N         144.4031  142.4366  157.0097 N.ar    1  UNL1       -0.2459
      8 C         145.1493  142.4970  155.7099 C.3     1  UNL1        0.1538
      9 C         144.5343  141.3667  158.0529 C.ar    1  UNL1        0.1115
     10 C         143.6069  141.7044  159.1824 C.ar    1  UNL1        0.0937
     11 N         142.2863  144.2732  161.0067 N.am    1  UNL1       -0.2995
     12 C         141.8848  143.6857  159.6862 C.2     1  UNL1        0.2666
     13 O         140.4656  143.8010  159.2144 O.2     1  UNL1       -0.2684
     14 H         143.2178  144.1975  161.3164 H       1  UNL1        0.1498
     15 C         141.2686  144.9759  161.8555 C.3     1  UNL1        0.0911
     16 C         137.3086  141.9028  163.2247 C.3     1  UNL1        0.0896
     17 N         138.5374  142.6801  163.5933 N.3     1  UNL1       -0.2715
     18 C         139.0149  142.6983  165.0152 C.3     1  UNL1        0.0721
     19 C         140.2436  143.4757  165.3838 C.3     1  UNL1        0.0174
     20 C         140.9949  144.2348  164.3306 C.3     1  UNL1        0.0045
     21 C         140.5173  144.2167  162.9088 C.3     1  UNL1        0.0356
     22 C         139.2886  143.4393  162.5402 C.3     1  UNL1        0.0738
     23 C         143.8011  140.5938  162.9875 C.ar    1  UNL1        0.1347
     24 C         144.9828  139.9563  163.6564 C.ar    1  UNL1        0.0238
     25 C         144.7931  139.1560  164.9107 C.ar    1  UNL1        0.0032
     26 C         143.4217  138.9930  165.4962 C.ar    1  UNL1        0.0192
     27 C         142.2401  139.6304  164.8274 C.ar    1  UNL1        0.0816
     28 N         142.4298  140.4308  163.5730 N.ar    1  UNL1       -0.2408
     29 C         140.8688  139.4674  165.4129 C.ar    1  UNL1        0.0220
     30 C         139.7250  139.0464  164.5386 C.ar    1  UNL1        0.0223
     31 C         138.3536  138.8834  165.1242 C.ar    1  UNL1        0.1003
     32 N         138.1261  139.1414  166.5843 N.ar    1  UNL1       -0.2294
     33 C         139.2699  139.5625  167.4586 C.ar    1  UNL1        0.1286
     34 C         140.6412  139.7254  166.8730 C.ar    1  UNL1        0.0356
     35 N         139.0424  139.8205  168.9187 N.pl3   1  UNL1       -0.3181
     36 H         138.2006  139.5371  169.3433 H       1  UNL1        0.1482
     37 C         140.0974  140.5103  169.7316 C.3     1  UNL1        0.0881
     38 C         140.1348  142.0085  169.7957 C.3     1  UNL1        0.0196
     39 C         139.8166  143.2863  170.5140 C.3     1  UNL1        0.0017
     40 C         140.5175  143.3256  169.1884 C.3     1  UNL1        0.0017
@<TRIPOS>BOND
     1    16    17    1
     2    17    18    1
     3    18    19    1
     4    19    20    1
     5    20    21    1
     6    21    15    1
     7    15    11    1
     8    11    12   am
     9    12    13    2
    10    12     5    1
    11     5     6   ar
    12     6     7   ar
    13     7     8    1
    14     7     9   ar
    15     9    10   ar
    16    10     1    1
    17     1     2   am
    18     2     3    2
    19     2    23    1
    20    23    24   ar
    21    24    25   ar
    22    25    26   ar
    23    26    27   ar
    24    27    29    1
    25    29    30   ar
    26    30    31   ar
    27    31    32   ar
    28    32    33   ar
    29    33    35    1
    30    35    37    1
    31    37    38    1
    32    38    39    1
    33    39    40    1
    34    33    34   ar
    35    27    28   ar
    36    21    22    1
    37    22    17    1
    38    10     5   ar
    39    28    23   ar
    40    34    29   ar
    41    40    38    1
    42    11    14    1
    43     1     4    1
    44    35    36    1
@<TRIPOS>MOLECULE
*****
 40 44 0 0 0
SMALL
GASTEIGER

@<TRIPOS>ATOM
      1 N         141.6528  141.3915  166.1738 N.am    1  UNL1       -0.2766
      2 C         142.5435  140.5147  165.3446 C.2     1  UNL1        0.2673
      3 O         142.5890  139.0372  165.5993 O.2     1  UNL1       -0.2682
      4 H         141.6229  142.3613  166.0067 H       1  UNL1        0.1553
      5 C         139.6290  139.8851  167.0570 C.ar    1  UNL1        0.1688
      6 N         139.0856  139.5250  168.4080 N.ar    1  UNL1       -0.1632
      7 N         139.9284  140.2084  169.4437 N.ar    1  UNL1       -0.2459
      8 C         139.7401  140.1241  170.9294 C.3     1  UNL1        0.1538
      9 C         140.9927  140.9908  168.7328 C.ar    1  UNL1        0.1115
     10 C         140.8076  140.7909  167.2578 C.ar    1  UNL1        0.0937
     11 N         139.5648  138.1275  165.1447 N.am    1  UNL1       -0.2995
     12 C         139.0886  139.4208  165.7370 C.2     1  UNL1        0.2666
     13 O         138.0720  140.2497  165.0093 O.2     1  UNL1       -0.2684
     14 H         140.2320  137.5835  165.6222 H       1  UNL1        0.1498
     15 C         139.0244  137.6632  163.8247 C.3     1  UNL1        0.0911
     16 C         139.1554  139.2870  158.8905 C.3     1  UNL1        0.0896
     17 N         139.8588  138.7403  160.0972 N.3     1  UNL1       -0.2715
     18 C         141.3311  138.4587  160.0436 C.3     1  UNL1        0.0721
     19 C         142.0346  137.9119  161.2504 C.3     1  UNL1        0.0174
     20 C         141.2657  137.6468  162.5107 C.3     1  UNL1        0.0045
     21 C         139.7934  137.9284  162.5643 C.3     1  UNL1        0.0356
     22 C         139.0899  138.4751  161.3576 C.3     1  UNL1        0.0738
     23 C         143.3887  141.1153  164.2606 C.ar    1  UNL1        0.1347
     24 C         144.8810  140.9708  164.3062 C.ar    1  UNL1        0.0238
     25 C         145.7262  141.5714  163.2223 C.ar    1  UNL1        0.0032
     26 C         145.0790  142.3165  162.0927 C.ar    1  UNL1        0.0192
     27 C         143.5867  142.4610  162.0471 C.ar    1  UNL1        0.0816
     28 N         142.7415  141.8604  163.1310 N.ar    1  UNL1       -0.2408
     29 C         142.9396  143.2061  160.9175 C.ar    1  UNL1        0.0220
     30 C         143.4661  143.0561  159.5210 C.ar    1  UNL1        0.0223
     31 C         142.8189  143.8013  158.3913 C.ar    1  UNL1        0.1003
     32 N         141.6453  144.6965  158.6583 N.ar    1  UNL1       -0.2294
     33 C         141.1188  144.8464  160.0548 C.ar    1  UNL1        0.1286
     34 C         141.7659  144.1013  161.1843 C.ar    1  UNL1        0.0356
     35 N         139.9451  145.7416  160.3218 N.pl3   1  UNL1       -0.3181
     36 H         139.3713  146.0360  159.5779 H       1  UNL1        0.1482
     37 C         139.6459  146.1882  161.7221 C.3     1  UNL1        0.0881
     38 C         138.9556  145.2576  162.6748 C.3     1  UNL1        0.0196
     39 C         138.7943  144.6990  164.0575 C.3     1  UNL1        0.0017
     40 C         137.9215  144.2046  162.9423 C.3     1  UNL1        0.0017
@<TRIPOS>BOND
     1    16    17    1
     2    17    18    1
     3    18    19    1
     4    19    20    1
     5    20    21    1
     6    21    15    1
     7    15    11    1
     8    11    12   am
     9    12    13    2
    10    12     5    1
    11     5     6   ar
    12     6     7   ar
    13     7     8    1
    14     7     9   ar
    15     9    10   ar
    16    10     1    1
    17     1     2   am
    18     2     3    2
    19     2    23    1
    20    23    24   ar
    21    24    25   ar
    22    25    26   ar
    23    26    27   ar
    24    27    29    1
    25    29    30   ar
    26    30    31   ar
    27    31    32   ar
    28    32    33   ar
    29    33    35    1
    30    35    37    1
    31    37    38    1
    32    38    39    1
    33    39    40    1
    34    33    34   ar
    35    27    28   ar
    36    21    22    1
    37    22    17    1
    38    10     5   ar
    39    28    23   ar
    40    34    29   ar
    41    40    38    1
    42    11    14    1
    43     1     4    1
    44    35    36    1
@<TRIPOS>MOLECULE
*****
 40 44 0 0 0
SMALL
GASTEIGER

@<TRIPOS>ATOM
      1 N         139.0414  142.0550  160.1508 N.am    1  UNL1       -0.2766
      2 C         138.2313  141.8168  161.3905 C.2     1  UNL1        0.2673
      3 O         137.1738  140.7531  161.4025 O.2     1  UNL1       -0.2682
      4 H         139.7355  142.7531  160.1429 H       1  UNL1        0.1553
      5 C         139.1531  139.7839  158.7456 C.ar    1  UNL1        0.1688
      6 N         138.7252  139.3655  157.3701 N.ar    1  UNL1       -0.1632
      7 N         138.1018  140.5525  156.6975 N.ar    1  UNL1       -0.2459
      8 C         137.5352  140.5823  155.3089 C.3     1  UNL1        0.1538
      9 C         138.1443  141.7045  157.6573 C.ar    1  UNL1        0.1115
     10 C         138.7941  141.2294  158.9231 C.ar    1  UNL1        0.0937
     11 N         139.1266  138.5951  161.0556 N.am    1  UNL1       -0.2995
     12 C         139.8224  138.9101  159.7646 C.2     1  UNL1        0.2666
     13 O         141.1876  138.3512  159.4926 O.2     1  UNL1       -0.2684
     14 H         138.2306  138.9619  161.2341 H       1  UNL1        0.1498
     15 C         139.7960  137.7213  162.0746 C.3     1  UNL1        0.0911
     16 C         137.7610  138.5879  166.7765 C.3     1  UNL1        0.0896
     17 N         138.9312  138.6326  165.8391 N.3     1  UNL1       -0.2715
     18 C         140.2540  139.1553  166.3153 C.3     1  UNL1        0.0721
     19 C         141.4242  139.1999  165.3780 C.3     1  UNL1        0.0174
     20 C         141.2716  138.7220  163.9644 C.3     1  UNL1        0.0045
     21 C         139.9487  138.1993  163.4882 C.3     1  UNL1        0.0356
     22 C         138.7785  138.1546  164.4256 C.3     1  UNL1        0.0738
     23 C         138.4786  142.6424  162.6182 C.ar    1  UNL1        0.1347
     24 C         137.5153  143.7273  162.9991 C.ar    1  UNL1        0.0238
     25 C         137.7626  144.5529  164.2268 C.ar    1  UNL1        0.0032
     26 C         138.9732  144.2935  165.0736 C.ar    1  UNL1        0.0192
     27 C         139.9365  143.2086  164.6927 C.ar    1  UNL1        0.0816
     28 N         139.6892  142.3830  163.4650 N.ar    1  UNL1       -0.2408
     29 C         141.1471  142.9493  165.5396 C.ar    1  UNL1        0.0220
     30 C         140.9855  142.5363  166.9725 C.ar    1  UNL1        0.0223
     31 C         142.1963  142.2770  167.8194 C.ar    1  UNL1        0.1003
     32 N         143.5684  142.4308  167.2333 N.ar    1  UNL1       -0.2294
     33 C         143.7300  142.8438  165.8004 C.ar    1  UNL1        0.1286
     34 C         142.5193  143.1031  164.9536 C.ar    1  UNL1        0.0356
     35 N         145.1021  142.9976  165.2143 N.pl3   1  UNL1       -0.3181
     36 H         145.7560  143.5963  165.6424 H       1  UNL1        0.1482
     37 C         145.4780  142.2392  163.9760 C.3     1  UNL1        0.0881
     38 C         145.0935  140.7961  163.8346 C.3     1  UNL1        0.0196
     39 C         145.0341  139.4066  164.3965 C.3     1  UNL1        0.0017
     40 C         144.4871  139.6863  163.0281 C.3     1  UNL1        0.0017
@<TRIPOS>BOND
     1    16    17    1
     2    17    18    1
     3    18    19    1
     4    19    20    1
     5    20    21    1
     6    21    15    1
     7    15    11    1
     8    11    12   am
     9    12    13    2
    10    12     5    1
    11     5     6   ar
    12     6     7   ar
    13     7     8    1
    14     7     9   ar
    15     9    10   ar
    16    10     1    1
    17     1     2   am
    18     2     3    2
    19     2    23    1
    20    23    24   ar
    21    24    25   ar
    22    25    26   ar
    23    26    27   ar
    24    27    29    1
    25    29    30   ar
    26    30    31   ar
    27    31    32   ar
    28    32    33   ar
    29    33    35    1
    30    35    37    1
    31    37    38    1
    32    38    39    1
    33    39    40    1
    34    33    34   ar
    35    27    28   ar
    36    21    22    1
    37    22    17    1
    38    10     5   ar
    39    28    23   ar
    40    34    29   ar
    41    40    38    1
    42    11    14    1
    43     1     4    1
    44    35    36    1
@<TRIPOS>MOLECULE
*****
 40 44 0 0 0
SMALL
GASTEIGER

@<TRIPOS>ATOM
      1 N         142.6725  140.3389  160.8333 N.am    1  UNL1       -0.2766
      2 C         141.1796  140.2075  160.8960 C.2     1  UNL1        0.2673
      3 O         140.3265  140.8319  159.8319 O.2     1  UNL1       -0.2682
      4 H         143.2324  139.9291  161.5317 H       1  UNL1        0.1553
      5 C         143.2422  142.5770  159.4874 C.ar    1  UNL1        0.1688
      6 N         144.0211  142.8994  158.2468 N.ar    1  UNL1       -0.1632
      7 N         144.5727  141.6164  157.6992 N.ar    1  UNL1       -0.2459
      8 C         145.4145  141.4738  156.4659 C.3     1  UNL1        0.1538
      9 C         144.1346  140.5011  158.6016 C.ar    1  UNL1        0.1115
     10 C         143.3123  141.0948  159.7067 C.ar    1  UNL1        0.0937
     11 N         141.0579  143.8222  160.1421 N.am    1  UNL1       -0.2995
     12 C         142.5199  143.5636  160.3562 C.2     1  UNL1        0.2666
     13 O         143.2595  144.2916  161.4393 O.2     1  UNL1       -0.2684
     14 H         140.5724  143.3444  159.4313 H       1  UNL1        0.1498
     15 C         140.3356  144.8088  161.0109 C.3     1  UNL1        0.0911
     16 C         137.3422  141.2171  163.2778 C.3     1  UNL1        0.0896
     17 N         138.0565  142.5350  163.3315 N.3     1  UNL1       -0.2715
     18 C         137.9885  143.3748  164.5724 C.3     1  UNL1        0.0721
     19 C         138.7028  144.6927  164.6262 C.3     1  UNL1        0.0174
     20 C         139.4852  145.1707  163.4391 C.3     1  UNL1        0.0045
     21 C         139.5532  144.3308  162.1981 C.3     1  UNL1        0.0356
     22 C         138.8389  143.0129  162.1444 C.3     1  UNL1        0.0738
     23 C         140.5398  139.4516  162.0226 C.ar    1  UNL1        0.1347
     24 C         139.4651  138.4453  161.7357 C.ar    1  UNL1        0.0238
     25 C         138.8253  137.6894  162.8623 C.ar    1  UNL1        0.0032
     26 C         139.2602  137.9399  164.2758 C.ar    1  UNL1        0.0192
     27 C         140.3349  138.9462  164.5627 C.ar    1  UNL1        0.0816
     28 N         140.9748  139.7020  163.4361 N.ar    1  UNL1       -0.2408
     29 C         140.7698  139.1965  165.9763 C.ar    1  UNL1        0.0220
     30 C         142.2232  139.1179  166.3390 C.ar    1  UNL1        0.0223
     31 C         142.6580  139.3683  167.7527 C.ar    1  UNL1        0.1003
     32 N         141.6394  139.6973  168.8035 N.ar    1  UNL1       -0.2294
     33 C         140.1861  139.7759  168.4408 C.ar    1  UNL1        0.1286
     34 C         139.7513  139.5255  167.0272 C.ar    1  UNL1        0.0356
     35 N         139.1675  140.1049  169.4917 N.pl3   1  UNL1       -0.3181
     36 H         138.3929  139.5130  169.6289 H       1  UNL1        0.1482
     37 C         139.3292  141.3359  170.3334 C.3     1  UNL1        0.0881
     38 C         140.0139  142.5455  169.7695 C.3     1  UNL1        0.0196
     39 C         140.3946  143.9922  169.8796 C.3     1  UNL1        0.0017
     40 C         140.8191  143.1940  168.6826 C.3     1  UNL1        0.0017
@<TRIPOS>BOND
     1    16    17    1
     2    17    18    1
     3    18    19    1
     4    19    20    1
     5    20    21    1
     6    21    15    1
     7    15    11    1
     8    11    12   am
     9    12    13    2
    10    12     5    1
    11     5     6   ar
    12     6     7   ar
    13     7     8    1
    14     7     9   ar
    15     9    10   ar
    16    10     1    1
    17     1     2   am
    18     2     3    2
    19     2    23    1
    20    23    24   ar
    21    24    25   ar
    22    25    26   ar
    23    26    27   ar
    24    27    29    1
    25    29    30   ar
    26    30    31   ar
    27    31    32   ar
    28    32    33   ar
    29    33    35    1
    30    35    37    1
    31    37    38    1
    32    38    39    1
    33    39    40    1
    34    33    34   ar
    35    27    28   ar
    36    21    22    1
    37    22    17    1
    38    10     5   ar
    39    28    23   ar
    40    34    29   ar
    41    40    38    1
    42    11    14    1
    43     1     4    1
    44    35    36    1
@<TRIPOS>MOLECULE
*****
 40 44 0 0 0
SMALL
GASTEIGER

@<TRIPOS>ATOM
      1 N         138.8227  142.3828  160.0260 N.am    1  UNL1       -0.2766
      2 C         138.1742  142.0263  161.3307 C.2     1  UNL1        0.2673
      3 O         137.1861  140.8995  161.3937 O.2     1  UNL1       -0.2682
      4 H         139.4712  143.1224  159.9846 H       1  UNL1        0.1553
      5 C         138.8325  140.1794  158.5127 C.ar    1  UNL1        0.1688
      6 N         138.3000  139.8215  157.1569 N.ar    1  UNL1       -0.1632
      7 N         137.6215  141.0335  156.5906 N.ar    1  UNL1       -0.2459
      8 C         136.9481  141.1229  155.2533 C.3     1  UNL1        0.1538
      9 C         137.7348  142.1406  157.5965 C.ar    1  UNL1        0.1115
     10 C         138.4832  141.6127  158.7844 C.ar    1  UNL1        0.0937
     11 N         138.9526  138.8127  160.7190 N.am    1  UNL1       -0.2995
     12 C         139.5827  139.2647  159.4350 C.2     1  UNL1        0.2666
     13 O         140.9629  138.8020  159.0732 O.2     1  UNL1       -0.2684
     14 H         138.0468  139.1164  160.9565 H       1  UNL1        0.1498
     15 C         139.7028  137.8980  161.6413 C.3     1  UNL1        0.0911
     16 C         143.0364  138.2411  165.6123 C.3     1  UNL1        0.0896
     17 N         141.6810  138.5071  165.0273 N.3     1  UNL1       -0.2715
     18 C         140.6371  139.2106  165.8429 C.3     1  UNL1        0.0721
     19 C         139.2817  139.4765  165.2580 C.3     1  UNL1        0.0174
     20 C         138.9703  139.0390  163.8574 C.3     1  UNL1        0.0045
     21 C         140.0142  138.3355  163.0419 C.3     1  UNL1        0.0356
     22 C         141.3696  138.0696  163.6268 C.3     1  UNL1        0.0738
     23 C         138.5137  142.7964  162.5723 C.ar    1  UNL1        0.1347
     24 C         137.5013  143.7200  163.1823 C.ar    1  UNL1        0.0238
     25 C         137.8408  144.4902  164.4239 C.ar    1  UNL1        0.0032
     26 C         139.1927  144.3367  165.0555 C.ar    1  UNL1        0.0192
     27 C         140.2050  143.4131  164.4455 C.ar    1  UNL1        0.0816
     28 N         139.8655  142.6429  163.2039 N.ar    1  UNL1       -0.2408
     29 C         141.5568  143.2597  165.0771 C.ar    1  UNL1        0.0220
     30 C         142.7779  143.7656  164.3679 C.ar    1  UNL1        0.0223
     31 C         144.1298  143.6122  164.9997 C.ar    1  UNL1        0.1003
     32 N         144.2605  142.9528  166.3406 N.ar    1  UNL1       -0.2294
     33 C         143.0394  142.4469  167.0498 C.ar    1  UNL1        0.1286
     34 C         141.6876  142.6003  166.4181 C.ar    1  UNL1        0.0356
     35 N         143.1701  141.7875  168.3908 N.pl3   1  UNL1       -0.3181
     36 H         143.4749  140.8534  168.4524 H       1  UNL1        0.1482
     37 C         142.8364  142.5514  169.6378 C.3     1  UNL1        0.0881
     38 C         141.4278  143.0034  169.8861 C.3     1  UNL1        0.0196
     39 C         140.3925  144.0887  169.8840 C.3     1  UNL1        0.0017
     40 C         140.0236  142.7012  170.3183 C.3     1  UNL1        0.0017
@<TRIPOS>BOND
     1    16    17    1
     2    17    18    1
     3    18    19    1
     4    19    20    1
     5    20    21    1
     6    21    15    1
     7    15    11    1
     8    11    12   am
     9    12    13    2
    10    12     5    1
    11     5     6   ar
    12     6     7   ar
    13     7     8    1
    14     7     9   ar
    15     9    10   ar
    16    10     1    1
    17     1     2   am
    18     2     3    2
    19     2    23    1
    20    23    24   ar
    21    24    25   ar
    22    25    26   ar
    23    26    27   ar
    24    27    29    1
    25    29    30   ar
    26    30    31   ar
    27    31    32   ar
    28    32    33   ar
    29    33    35    1
    30    35    37    1
    31    37    38    1
    32    38    39    1
    33    39    40    1
    34    33    34   ar
    35    27    28   ar
    36    21    22    1
    37    22    17    1
    38    10     5   ar
    39    28    23   ar
    40    34    29   ar
    41    40    38    1
    42    11    14    1
    43     1     4    1
    44    35    36    1
