@<TRIPOS>MOLECULE
*****
 28 30 0 0 0
SMALL
GASTEIGER

@<TRIPOS>ATOM
      1 C         140.7115  145.4568  162.2993 C.3     1  UNL1        0.0066
      2 C         139.9302  144.3715  162.9787 C.3     1  UNL1        0.0454
      3 C         140.4954  143.6839  164.1861 C.ar    1  UNL1       -0.0207
      4 C         139.7098  143.6446  165.4633 C.ar    1  UNL1       -0.0042
      5 C         140.2750  142.9570  166.6706 C.ar    1  UNL1       -0.0003
      6 C         141.6258  142.3087  166.6008 C.ar    1  UNL1        0.0015
      7 C         142.4114  142.3479  165.3236 C.ar    1  UNL1       -0.0003
      8 C         141.8462  143.0355  164.1163 C.ar    1  UNL1       -0.0042
      9 C         142.1910  141.6210  167.8082 C.ar    1  UNL1        0.0194
     10 C         142.8840  142.4209  168.8711 C.ar    1  UNL1        0.0063
     11 C         143.4493  141.7333  170.0785 C.ar    1  UNL1        0.0575
     12 C         143.3214  140.2457  170.2229 C.ar    1  UNL1        0.2216
     13 O         143.8865  139.5581  171.4303 O.3     1  UNL1       -0.4919
     14 N         142.6283  139.4458  169.1599 N.ar    1  UNL1       -0.2103
     15 C         142.0631  140.1335  167.9526 C.ar    1  UNL1        0.1020
     16 H         144.3195  140.0578  172.0942 H       1  UNL1        0.2937
     17 C         138.5837  143.9738  162.4508 C.3     1  UNL1        0.1325
     18 N         137.3596  144.7328  162.8700 N.3     1  UNL1       -0.3148
     19 H         137.6259  145.4801  163.5110 H       1  UNL1        0.1192
     20 H         136.7103  144.0997  163.3369 H       1  UNL1        0.1192
     21 C         138.4612  142.8171  161.5036 C.2     1  UNL1        0.2401
     22 O         138.5098  143.0519  160.0228 O.2     1  UNL1       -0.2734
     23 N         138.2900  141.4257  162.0372 N.am    1  UNL1       -0.2756
     24 C         138.2239  141.0384  163.4848 C.3     1  UNL1        0.0964
     25 C         138.0480  139.5506  163.5591 C.3     1  UNL1        0.0585
     26 C         138.0054  139.0184  162.1573 C.3     1  UNL1        0.1824
     27 F         137.8418  137.5799  161.7650 F       1  UNL1       -0.2354
     28 C         138.1549  140.1772  161.2168 C.3     1  UNL1        0.1286
@<TRIPOS>BOND
     1     2     1    1
     2     2     3    1
     3     3     4   ar
     4     4     5   ar
     5     5     6   ar
     6     6     9    1
     7     9    10   ar
     8    10    11   ar
     9    11    12   ar
    10    12    13    1
    11    12    14   ar
    12    14    15   ar
    13     6     7   ar
    14     7     8   ar
    15     2    17    1
    16    17    18    1
    17    17    21    1
    18    21    22    2
    19    21    23   am
    20    23    24    1
    21    24    25    1
    22    25    26    1
    23    26    27    1
    24    26    28    1
    25     8     3   ar
    26    28    23    1
    27    15     9   ar
    28    13    16    1
    29    18    19    1
    30    18    20    1
@<TRIPOS>MOLECULE
*****
 28 30 0 0 0
SMALL
GASTEIGER

@<TRIPOS>ATOM
      1 C         144.0582  144.6789  163.0223 C.3     1  UNL1        0.0066
      2 C         144.0709  143.2237  163.3856 C.3     1  UNL1        0.0454
      3 C         143.1541  142.7098  164.4559 C.ar    1  UNL1       -0.0207
      4 C         141.7425  142.3326  164.1168 C.ar    1  UNL1       -0.0042
      5 C         140.8258  141.8188  165.1871 C.ar    1  UNL1       -0.0003
      6 C         141.3207  141.6821  166.5965 C.ar    1  UNL1        0.0015
      7 C         142.7323  142.0593  166.9356 C.ar    1  UNL1       -0.0003
      8 C         143.6490  142.5731  165.8653 C.ar    1  UNL1       -0.0042
      9 C         140.4039  141.1682  167.6668 C.ar    1  UNL1        0.0194
     10 C         140.3411  141.8600  168.9963 C.ar    1  UNL1        0.0063
     11 C         139.4243  141.3461  170.0666 C.ar    1  UNL1        0.0575
     12 C         138.5704  140.1405  169.8074 C.ar    1  UNL1        0.2216
     13 O         137.6536  139.6266  170.8776 O.3     1  UNL1       -0.4919
     14 N         138.6332  139.4487  168.4778 N.ar    1  UNL1       -0.2103
     15 C         139.5499  139.9626  167.4076 C.ar    1  UNL1        0.1020
     16 H         137.6144  140.0587  171.7081 H       1  UNL1        0.2937
     17 C         145.0003  142.2823  162.6786 C.3     1  UNL1        0.1325
     18 N         146.2981  141.8875  163.3191 N.3     1  UNL1       -0.3148
     19 H         146.3845  142.3489  164.2247 H       1  UNL1        0.1192
     20 H         147.0731  142.1692  162.7188 H       1  UNL1        0.1192
     21 C         144.6321  141.7355  161.3313 C.2     1  UNL1        0.2401
     22 O         144.7395  142.6055  160.1140 O.2     1  UNL1       -0.2734
     23 N         144.1566  140.3189  161.2011 N.am    1  UNL1       -0.2756
     24 C         143.9989  139.3352  162.3225 C.3     1  UNL1        0.0964
     25 C         143.5000  138.0456  161.7411 C.3     1  UNL1        0.0585
     26 C         143.3494  138.2322  160.2604 C.3     1  UNL1        0.1824
     27 F         142.8761  137.1958  159.2848 F       1  UNL1       -0.2354
     28 C         143.7552  139.6372  159.9267 C.3     1  UNL1        0.1286
@<TRIPOS>BOND
     1     2     1    1
     2     2     3    1
     3     3     4   ar
     4     4     5   ar
     5     5     6   ar
     6     6     9    1
     7     9    10   ar
     8    10    11   ar
     9    11    12   ar
    10    12    13    1
    11    12    14   ar
    12    14    15   ar
    13     6     7   ar
    14     7     8   ar
    15     2    17    1
    16    17    18    1
    17    17    21    1
    18    21    22    2
    19    21    23   am
    20    23    24    1
    21    24    25    1
    22    25    26    1
    23    26    27    1
    24    26    28    1
    25     8     3   ar
    26    28    23    1
    27    15     9   ar
    28    13    16    1
    29    18    19    1
    30    18    20    1
@<TRIPOS>MOLECULE
*****
 28 30 0 0 0
SMALL
GASTEIGER

@<TRIPOS>ATOM
      1 C         145.2615  142.1798  162.5474 C.3     1  UNL1        0.0066
      2 C         144.1110  142.9066  163.1783 C.3     1  UNL1        0.0454
      3 C         143.4624  142.3555  164.4135 C.ar    1  UNL1       -0.0207
      4 C         143.7876  142.9402  165.7560 C.ar    1  UNL1       -0.0042
      5 C         143.1389  142.3891  166.9911 C.ar    1  UNL1       -0.0003
      6 C         142.1652  141.2532  166.8837 C.ar    1  UNL1        0.0015
      7 C         141.8400  140.6685  165.5412 C.ar    1  UNL1       -0.0003
      8 C         142.4886  141.2196  164.3061 C.ar    1  UNL1       -0.0042
      9 C         141.5165  140.7021  168.1189 C.ar    1  UNL1        0.0194
     10 C         142.3188  139.8816  169.0849 C.ar    1  UNL1        0.0063
     11 C         141.6701  139.3305  170.3201 C.ar    1  UNL1        0.0575
     12 C         140.2193  139.5999  170.5892 C.ar    1  UNL1        0.2216
     13 O         139.5706  139.0488  171.8243 O.3     1  UNL1       -0.4919
     14 N         139.4170  140.4204  169.6231 N.ar    1  UNL1       -0.2103
     15 C         140.0657  140.9715  168.3880 C.ar    1  UNL1        0.1020
     16 H         140.0717  138.5363  172.4277 H       1  UNL1        0.2937
     17 C         143.6091  144.1845  162.5742 C.3     1  UNL1        0.1325
     18 N         144.4066  145.4467  162.7194 N.3     1  UNL1       -0.3148
     19 H         145.2541  145.2540  163.2533 H       1  UNL1        0.1192
     20 H         143.8488  146.1470  163.2081 H       1  UNL1        0.1192
     21 C         142.3098  144.2003  161.8249 C.2     1  UNL1        0.2401
     22 O         142.3021  144.0393  160.3335 O.2     1  UNL1       -0.2734
     23 N         141.0182  144.3771  162.5668 N.am    1  UNL1       -0.2756
     24 C         140.8695  144.5488  164.0495 C.3     1  UNL1        0.0964
     25 C         139.4079  144.6910  164.3554 C.3     1  UNL1        0.0585
     26 C         138.6533  144.6072  163.0618 C.3     1  UNL1        0.1824
     27 F         137.1648  144.7009  162.9016 F       1  UNL1       -0.2354
     28 C         139.6486  144.4131  161.9564 C.3     1  UNL1        0.1286
@<TRIPOS>BOND
     1     2     1    1
     2     2     3    1
     3     3     4   ar
     4     4     5   ar
     5     5     6   ar
     6     6     9    1
     7     9    10   ar
     8    10    11   ar
     9    11    12   ar
    10    12    13    1
    11    12    14   ar
    12    14    15   ar
    13     6     7   ar
    14     7     8   ar
    15     2    17    1
    16    17    18    1
    17    17    21    1
    18    21    22    2
    19    21    23   am
    20    23    24    1
    21    24    25    1
    22    25    26    1
    23    26    27    1
    24    26    28    1
    25     8     3   ar
    26    28    23    1
    27    15     9   ar
    28    13    16    1
    29    18    19    1
    30    18    20    1
@<TRIPOS>MOLECULE
*****
 28 30 0 0 0
SMALL
GASTEIGER

@<TRIPOS>ATOM
      1 C         138.8954  137.6447  163.0162 C.3     1  UNL1        0.0066
      2 C         138.9810  139.1417  163.0540 C.3     1  UNL1        0.0454
      3 C         139.6023  139.8279  164.2343 C.ar    1  UNL1       -0.0207
      4 C         141.0704  140.1355  164.2359 C.ar    1  UNL1       -0.0042
      5 C         141.6916  140.8217  165.4162 C.ar    1  UNL1       -0.0003
      6 C         140.8448  141.2002  166.5950 C.ar    1  UNL1        0.0015
      7 C         139.3767  140.8926  166.5934 C.ar    1  UNL1       -0.0003
      8 C         138.7554  140.2065  165.4131 C.ar    1  UNL1       -0.0042
      9 C         141.4661  141.8864  167.7754 C.ar    1  UNL1        0.0194
     10 C         140.6000  142.6081  168.7648 C.ar    1  UNL1        0.0063
     11 C         141.2213  143.2942  169.9452 C.ar    1  UNL1        0.0575
     12 C         142.7087  143.2587  170.1360 C.ar    1  UNL1        0.2216
     13 O         143.3300  143.9449  171.3163 O.3     1  UNL1       -0.4919
     14 N         143.5748  142.5370  169.1465 N.ar    1  UNL1       -0.2103
     15 C         142.9535  141.8509  167.9662 C.ar    1  UNL1        0.1020
     16 H         142.7890  144.3957  171.9344 H       1  UNL1        0.2937
     17 C         138.4453  139.9527  161.9114 C.3     1  UNL1        0.1325
     18 N         137.1298  139.5917  161.2874 N.3     1  UNL1       -0.3148
     19 H         136.7414  138.7760  161.7607 H       1  UNL1        0.1192
     20 H         137.2693  139.3774  160.2999 H       1  UNL1        0.1192
     21 C         139.2249  141.1245  161.3930 C.2     1  UNL1        0.2401
     22 O         140.2949  140.9167  160.3624 O.2     1  UNL1       -0.2734
     23 N         138.9346  142.5042  161.9050 N.am    1  UNL1       -0.2756
     24 C         137.9001  142.8649  162.9295 C.3     1  UNL1        0.0964
     25 C         137.9540  144.3491  163.1401 C.3     1  UNL1        0.0585
     26 C         139.0219  144.9057  162.2458 C.3     1  UNL1        0.1824
     27 F         139.4147  146.3490  162.1344 F       1  UNL1       -0.2354
     28 C         139.6279  143.7655  161.4825 C.3     1  UNL1        0.1286
@<TRIPOS>BOND
     1     2     1    1
     2     2     3    1
     3     3     4   ar
     4     4     5   ar
     5     5     6   ar
     6     6     9    1
     7     9    10   ar
     8    10    11   ar
     9    11    12   ar
    10    12    13    1
    11    12    14   ar
    12    14    15   ar
    13     6     7   ar
    14     7     8   ar
    15     2    17    1
    16    17    18    1
    17    17    21    1
    18    21    22    2
    19    21    23   am
    20    23    24    1
    21    24    25    1
    22    25    26    1
    23    26    27    1
    24    26    28    1
    25     8     3   ar
    26    28    23    1
    27    15     9   ar
    28    13    16    1
    29    18    19    1
    30    18    20    1
@<TRIPOS>MOLECULE
*****
 28 30 0 0 0
SMALL
GASTEIGER

@<TRIPOS>ATOM
      1 C         139.5082  137.9202  161.5826 C.3     1  UNL1        0.0066
      2 C         139.2153  139.2155  162.2800 C.3     1  UNL1        0.0454
      3 C         139.6685  139.4250  163.6945 C.ar    1  UNL1       -0.0207
      4 C         138.6569  139.6009  164.7879 C.ar    1  UNL1       -0.0042
      5 C         139.1101  139.8104  166.2024 C.ar    1  UNL1       -0.0003
      6 C         140.5750  139.8439  166.5234 C.ar    1  UNL1        0.0015
      7 C         141.5866  139.6679  165.4300 C.ar    1  UNL1       -0.0003
      8 C         141.1334  139.4585  164.0156 C.ar    1  UNL1       -0.0042
      9 C         141.0282  140.0533  167.9379 C.ar    1  UNL1        0.0194
     10 C         140.0189  140.2960  169.0207 C.ar    1  UNL1        0.0063
     11 C         140.4721  140.5054  170.4352 C.ar    1  UNL1        0.0575
     12 C         141.9346  140.4722  170.7669 C.ar    1  UNL1        0.2216
     13 O         142.3878  140.6816  172.1813 O.3     1  UNL1       -0.4919
     14 N         142.9439  140.2295  169.6840 N.ar    1  UNL1       -0.2103
     15 C         142.4907  140.0200  168.2696 C.ar    1  UNL1        0.1020
     16 H         141.7574  140.8332  172.8577 H       1  UNL1        0.2937
     17 C         138.4692  140.3014  161.5629 C.3     1  UNL1        0.1325
     18 N         136.9830  140.2002  161.3871 N.3     1  UNL1       -0.3148
     19 H         136.6483  139.3359  161.8130 H       1  UNL1        0.1192
     20 H         136.7576  140.1985  160.3923 H       1  UNL1        0.1192
     21 C         139.2094  141.4885  161.0217 C.2     1  UNL1        0.2401
     22 O         140.0736  141.3424  159.8044 O.2     1  UNL1       -0.2734
     23 N         139.0853  142.8218  161.6977 N.am    1  UNL1       -0.2756
     24 C         138.2629  143.1193  162.9164 C.3     1  UNL1        0.0964
     25 C         138.4311  144.5731  163.2456 C.3     1  UNL1        0.0585
     26 C         139.3574  145.1740  162.2303 C.3     1  UNL1        0.1824
     27 F         139.8015  146.6059  162.1804 F       1  UNL1       -0.2354
     28 C         139.7617  144.0917  161.2737 C.3     1  UNL1        0.1286
@<TRIPOS>BOND
     1     2     1    1
     2     2     3    1
     3     3     4   ar
     4     4     5   ar
     5     5     6   ar
     6     6     9    1
     7     9    10   ar
     8    10    11   ar
     9    11    12   ar
    10    12    13    1
    11    12    14   ar
    12    14    15   ar
    13     6     7   ar
    14     7     8   ar
    15     2    17    1
    16    17    18    1
    17    17    21    1
    18    21    22    2
    19    21    23   am
    20    23    24    1
    21    24    25    1
    22    25    26    1
    23    26    27    1
    24    26    28    1
    25     8     3   ar
    26    28    23    1
    27    15     9   ar
    28    13    16    1
    29    18    19    1
    30    18    20    1
@<TRIPOS>MOLECULE
*****
 28 30 0 0 0
SMALL
GASTEIGER

@<TRIPOS>ATOM
      1 C         138.6528  137.6320  162.6174 C.3     1  UNL1        0.0066
      2 C         138.4886  139.0679  163.0186 C.3     1  UNL1        0.0454
      3 C         139.0123  139.5415  164.3421 C.ar    1  UNL1       -0.0207
      4 C         140.2636  140.3665  164.4019 C.ar    1  UNL1       -0.0042
      5 C         140.7871  140.8400  165.7253 C.ar    1  UNL1       -0.0003
      6 C         140.0594  140.4886  166.9890 C.ar    1  UNL1        0.0015
      7 C         138.8081  139.6636  166.9292 C.ar    1  UNL1       -0.0003
      8 C         138.2845  139.1901  165.6058 C.ar    1  UNL1       -0.0042
      9 C         140.5830  140.9621  168.3125 C.ar    1  UNL1        0.0194
     10 C         141.0906  142.3660  168.4595 C.ar    1  UNL1        0.0063
     11 C         141.6142  142.8395  169.7830 C.ar    1  UNL1        0.0575
     12 C         141.6303  141.9092  170.9595 C.ar    1  UNL1        0.2216
     13 O         142.1538  142.3827  172.2830 O.3     1  UNL1       -0.4919
     14 N         141.1226  140.5053  170.8126 N.ar    1  UNL1       -0.2103
     15 C         140.5990  140.0318  169.4891 C.ar    1  UNL1        0.1020
     16 H         142.4709  143.2597  172.3748 H       1  UNL1        0.2937
     17 C         137.8009  140.0304  162.0963 C.3     1  UNL1        0.1325
     18 N         136.9906  139.5157  160.9436 N.3     1  UNL1       -0.3148
     19 H         137.0162  138.4961  160.9385 H       1  UNL1        0.1192
     20 H         137.3794  139.8700  160.0697 H       1  UNL1        0.1192
     21 C         137.9234  141.5075  162.3266 C.2     1  UNL1        0.2401
     22 O         136.9726  142.2033  163.2551 O.2     1  UNL1       -0.2734
     23 N         138.9967  142.2890  161.6285 N.am    1  UNL1       -0.2756
     24 C         140.0145  141.7334  160.6770 C.3     1  UNL1        0.0964
     25 C         140.8875  142.8643  160.2198 C.3     1  UNL1        0.0585
     26 C         140.4093  144.1188  160.8888 C.3     1  UNL1        0.1824
     27 F         140.9965  145.4884  160.7173 F       1  UNL1       -0.2354
     28 C         139.2407  143.7632  161.7594 C.3     1  UNL1        0.1286
@<TRIPOS>BOND
     1     2     1    1
     2     2     3    1
     3     3     4   ar
     4     4     5   ar
     5     5     6   ar
     6     6     9    1
     7     9    10   ar
     8    10    11   ar
     9    11    12   ar
    10    12    13    1
    11    12    14   ar
    12    14    15   ar
    13     6     7   ar
    14     7     8   ar
    15     2    17    1
    16    17    18    1
    17    17    21    1
    18    21    22    2
    19    21    23   am
    20    23    24    1
    21    24    25    1
    22    25    26    1
    23    26    27    1
    24    26    28    1
    25     8     3   ar
    26    28    23    1
    27    15     9   ar
    28    13    16    1
    29    18    19    1
    30    18    20    1
@<TRIPOS>MOLECULE
*****
 28 30 0 0 0
SMALL
GASTEIGER

@<TRIPOS>ATOM
      1 C         137.4153  139.9007  161.6294 C.3     1  UNL1        0.0066
      2 C         138.7063  139.4980  162.2781 C.3     1  UNL1        0.0454
      3 C         138.9861  139.8899  163.6988 C.ar    1  UNL1       -0.0207
      4 C         139.4312  141.2863  164.0178 C.ar    1  UNL1       -0.0042
      5 C         139.7110  141.6781  165.4384 C.ar    1  UNL1       -0.0003
      6 C         139.5457  140.6735  166.5400 C.ar    1  UNL1        0.0015
      7 C         139.1006  139.2771  166.2209 C.ar    1  UNL1       -0.0003
      8 C         138.8209  138.8852  164.8004 C.ar    1  UNL1       -0.0042
      9 C         139.8255  141.0654  167.9606 C.ar    1  UNL1        0.0194
     10 C         140.5742  142.3312  168.2559 C.ar    1  UNL1        0.0063
     11 C         140.8540  142.7231  169.6766 C.ar    1  UNL1        0.0575
     12 C         140.3851  141.8492  170.8019 C.ar    1  UNL1        0.2216
     13 O         140.6649  142.2410  172.2225 O.3     1  UNL1       -0.4919
     14 N         139.6364  140.5833  170.5066 N.ar    1  UNL1       -0.2103
     15 C         139.3566  140.1915  169.0860 C.ar    1  UNL1        0.1020
     16 H         141.1326  143.0317  172.4070 H       1  UNL1        0.2937
     17 C         139.7176  138.7033  161.5063 C.3     1  UNL1        0.1325
     18 N         139.3929  138.2156  160.1254 N.3     1  UNL1       -0.3148
     19 H         138.4504  138.5128  159.8727 H       1  UNL1        0.1192
     20 H         139.4456  137.1972  160.1033 H       1  UNL1        0.1192
     21 C         141.0536  138.3964  162.1152 C.2     1  UNL1        0.2401
     22 O         141.3171  137.0410  162.7015 O.2     1  UNL1       -0.2734
     23 N         142.1262  139.4447  162.1379 N.am    1  UNL1       -0.2756
     24 C         142.0096  140.8374  161.5931 C.3     1  UNL1        0.0964
     25 C         143.3150  141.5379  161.8279 C.3     1  UNL1        0.0585
     26 C         144.2385  140.5782  162.5179 C.3     1  UNL1        0.1824
     27 F         145.6490  140.8622  162.9419 F       1  UNL1       -0.2354
     28 C         143.5037  139.2845  162.7095 C.3     1  UNL1        0.1286
@<TRIPOS>BOND
     1     2     1    1
     2     2     3    1
     3     3     4   ar
     4     4     5   ar
     5     5     6   ar
     6     6     9    1
     7     9    10   ar
     8    10    11   ar
     9    11    12   ar
    10    12    13    1
    11    12    14   ar
    12    14    15   ar
    13     6     7   ar
    14     7     8   ar
    15     2    17    1
    16    17    18    1
    17    17    21    1
    18    21    22    2
    19    21    23   am
    20    23    24    1
    21    24    25    1
    22    25    26    1
    23    26    27    1
    24    26    28    1
    25     8     3   ar
    26    28    23    1
    27    15     9   ar
    28    13    16    1
    29    18    19    1
    30    18    20    1
@<TRIPOS>MOLECULE
*****
 28 30 0 0 0
SMALL
GASTEIGER

@<TRIPOS>ATOM
      1 C         144.0655  139.3373  161.1622 C.3     1  UNL1        0.0066
      2 C         143.8227  140.5653  161.9884 C.3     1  UNL1        0.0454
      3 C         143.2713  140.4377  163.3776 C.ar    1  UNL1       -0.0207
      4 C         143.8475  141.2604  164.4917 C.ar    1  UNL1       -0.0042
      5 C         143.2961  141.1328  165.8808 C.ar    1  UNL1       -0.0003
      6 C         142.1687  140.1824  166.1559 C.ar    1  UNL1        0.0015
      7 C         141.5925  139.3597  165.0418 C.ar    1  UNL1       -0.0003
      8 C         142.1439  139.4874  163.6527 C.ar    1  UNL1       -0.0042
      9 C         141.6173  140.0548  167.5451 C.ar    1  UNL1        0.0194
     10 C         140.1926  140.4319  167.8241 C.ar    1  UNL1        0.0063
     11 C         139.6413  140.3043  169.2133 C.ar    1  UNL1        0.0575
     12 C         140.5147  139.7996  170.3234 C.ar    1  UNL1        0.2216
     13 O         139.9635  139.6719  171.7126 O.3     1  UNL1       -0.4919
     14 N         141.9395  139.4224  170.0443 N.ar    1  UNL1       -0.2103
     15 C         142.4908  139.5501  168.6552 C.ar    1  UNL1        0.1020
     16 H         139.0735  139.9075  171.8869 H       1  UNL1        0.2937
     17 C         144.1311  141.9211  161.4256 C.3     1  UNL1        0.1325
     18 N         145.5206  142.4770  161.5273 N.3     1  UNL1       -0.3148
     19 H         146.1215  141.8052  162.0047 H       1  UNL1        0.1192
     20 H         145.4999  143.3497  162.0551 H       1  UNL1        0.1192
     21 C         143.0501  142.7209  160.7610 C.2     1  UNL1        0.2401
     22 O         142.6912  142.4528  159.3294 O.2     1  UNL1       -0.2734
     23 N         142.3280  143.7888  161.5279 N.am    1  UNL1       -0.2756
     24 C         142.5761  144.1681  162.9578 C.3     1  UNL1        0.0964
     25 C         141.6324  145.2786  163.3132 C.3     1  UNL1        0.0585
     26 C         140.8011  145.5856  162.1030 C.3     1  UNL1        0.1824
     27 F         139.7282  146.6300  162.0120 F       1  UNL1       -0.2354
     28 C         141.2310  144.6648  160.9996 C.3     1  UNL1        0.1286
@<TRIPOS>BOND
     1     2     1    1
     2     2     3    1
     3     3     4   ar
     4     4     5   ar
     5     5     6   ar
     6     6     9    1
     7     9    10   ar
     8    10    11   ar
     9    11    12   ar
    10    12    13    1
    11    12    14   ar
    12    14    15   ar
    13     6     7   ar
    14     7     8   ar
    15     2    17    1
    16    17    18    1
    17    17    21    1
    18    21    22    2
    19    21    23   am
    20    23    24    1
    21    24    25    1
    22    25    26    1
    23    26    27    1
    24    26    28    1
    25     8     3   ar
    26    28    23    1
    27    15     9   ar
    28    13    16    1
    29    18    19    1
    30    18    20    1
@<TRIPOS>MOLECULE
*****
 28 30 0 0 0
SMALL
GASTEIGER

@<TRIPOS>ATOM
      1 C         144.8642  141.1686  161.8478 C.3     1  UNL1        0.0066
      2 C         143.8803  140.2397  162.4951 C.3     1  UNL1        0.0454
      3 C         143.4009  140.5088  163.8908 C.ar    1  UNL1       -0.0207
      4 C         143.4141  139.4112  164.9131 C.ar    1  UNL1       -0.0042
      5 C         142.9347  139.6804  166.3086 C.ar    1  UNL1       -0.0003
      6 C         142.4420  141.0472  166.6819 C.ar    1  UNL1        0.0015
      7 C         142.4288  142.1447  165.6596 C.ar    1  UNL1       -0.0003
      8 C         142.9082  141.8755  164.2640 C.ar    1  UNL1       -0.0042
      9 C         141.9626  141.3163  168.0775 C.ar    1  UNL1        0.0194
     10 C         142.6307  142.3702  168.9099 C.ar    1  UNL1        0.0063
     11 C         142.1512  142.6394  170.3056 C.ar    1  UNL1        0.0575
     12 C         141.0036  141.8546  170.8687 C.ar    1  UNL1        0.2216
     13 O         140.5242  142.1237  172.2643 O.3     1  UNL1       -0.4919
     14 N         140.3355  140.8006  170.0363 N.ar    1  UNL1       -0.2103
     15 C         140.8150  140.5315  168.6407 C.ar    1  UNL1        0.1020
     16 H         140.9415  142.7820  172.7843 H       1  UNL1        0.2937
     17 C         143.3759  139.0415  161.7468 C.3     1  UNL1        0.1325
     18 N         144.1500  137.7570  161.7781 N.3     1  UNL1       -0.3148
     19 H         144.9855  137.8775  162.3508 H       1  UNL1        0.1192
     20 H         144.4224  137.5010  160.8291 H       1  UNL1        0.1192
     21 C         142.0973  139.1278  160.9672 C.2     1  UNL1        0.2401
     22 O         142.0992  139.7123  159.5857 O.2     1  UNL1       -0.2734
     23 N         140.8169  138.6295  161.5690 N.am    1  UNL1       -0.2756
     24 C         140.6605  138.0233  162.9321 C.3     1  UNL1        0.0964
     25 C         139.2149  137.6691  163.1188 C.3     1  UNL1        0.0585
     26 C         138.4778  138.0564  161.8711 C.3     1  UNL1        0.1824
     27 F         137.0087  137.8810  161.6246 F       1  UNL1       -0.2354
     28 C         139.4679  138.6500  160.9133 C.3     1  UNL1        0.1286
@<TRIPOS>BOND
     1     2     1    1
     2     2     3    1
     3     3     4   ar
     4     4     5   ar
     5     5     6   ar
     6     6     9    1
     7     9    10   ar
     8    10    11   ar
     9    11    12   ar
    10    12    13    1
    11    12    14   ar
    12    14    15   ar
    13     6     7   ar
    14     7     8   ar
    15     2    17    1
    16    17    18    1
    17    17    21    1
    18    21    22    2
    19    21    23   am
    20    23    24    1
    21    24    25    1
    22    25    26    1
    23    26    27    1
    24    26    28    1
    25     8     3   ar
    26    28    23    1
    27    15     9   ar
    28    13    16    1
    29    18    19    1
    30    18    20    1
