@<TRIPOS>MOLECULE
*****
 28 31 0 0 0
SMALL
GASTEIGER

@<TRIPOS>ATOM
      1 C         139.7699  141.2093  166.6235 C.2     1  UNL1       -0.0021
      2 C         139.1957  139.8242  166.5820 C.2     1  UNL1        0.0942
      3 N         138.2594  139.7455  165.4128 N.2     1  UNL1       -0.2482
      4 C         138.2550  141.0819  164.7316 C.2     1  UNL1        0.0633
      5 C         137.5215  141.5918  163.5266 C.3     1  UNL1        0.0753
      6 C         137.7216  143.0065  163.0700 C.2     1  UNL1        0.0203
      7 C         138.6551  143.9112  163.8183 C.2     1  UNL1        0.1317
      8 C         139.3886  143.4013  165.0232 C.2     1  UNL1        0.0407
      9 C         139.1885  141.9866  165.4799 C.2     1  UNL1        0.0148
     10 C         142.7189  142.7607  169.6479 C.3     1  UNL1        0.0540
     11 C         143.2003  141.9668  168.4698 C.3     1  UNL1        0.0160
     12 C         142.2172  141.4497  167.4617 C.3     1  UNL1        0.0058
     13 C         140.7529  141.7265  167.6316 C.3     1  UNL1        0.0240
     14 C         140.2715  142.5204  168.8098 C.3     1  UNL1        0.0058
     15 C         141.2545  143.0375  169.8179 C.3     1  UNL1        0.0160
     16 C         145.1722  143.2300  170.3628 C.3     1  UNL1        0.0858
     17 N         143.7019  143.2778  170.6560 N.3     1  UNL1       -0.2974
     18 H         143.4664  144.2563  170.8218 H       1  UNL1        0.1232
     19 N         138.8552  145.3260  163.3615 N.pl3   1  UNL1       -0.1992
     20 H         138.2818  146.0435  163.7162 H       1  UNL1        0.2985
     21 C         139.9287  145.6476  162.3645 C.2     1  UNL1        0.3224
     22 N         139.6079  146.4814  161.1596 N.2     1  UNL1       -0.0985
     23 H         138.6927  146.8176  161.0232 H       1  UNL1        0.3633
     24 C         141.3232  145.1353  162.5724 C.ar    1  UNL1        0.1114
     25 C         142.2068  145.4358  163.7467 C.ar    1  UNL1        0.0144
     26 C         143.5086  144.7188  163.5426 C.ar    1  UNL1        0.0077
     27 C         143.4293  143.9754  162.2422 C.ar    1  UNL1        0.0357
     28 S         142.0787  144.2328  161.6426 S.2     1  UNL1       -0.0792
@<TRIPOS>BOND
     1    16    17    1
     2    10    17    1
     3    10    11    1
     4    11    12    1
     5    12    13    1
     6    13     1    1
     7     1     2    2
     8     2     3    1
     9     3     4    2
    10     4     5    1
    11     5     6    1
    12     6     7    2
    13     7    19    1
    14    19    21    1
    15    21    22    2
    16    21    24    1
    17    24    25   ar
    18    25    26   ar
    19    26    27   ar
    20    27    28   ar
    21     7     8    1
    22     8     9    2
    23    13    14    1
    24    14    15    1
    25    15    10    1
    26     9     1    1
    27     9     4    1
    28    28    24   ar
    29    17    18    1
    30    19    20    1
    31    22    23    1
@<TRIPOS>MOLECULE
*****
 28 31 0 0 0
SMALL
GASTEIGER

@<TRIPOS>ATOM
      1 C         138.9675  140.0983  165.2709 C.2     1  UNL1       -0.0021
      2 C         138.8543  138.6991  164.7424 C.2     1  UNL1        0.0942
      3 N         138.4826  138.7804  163.2915 N.2     1  UNL1       -0.2482
      4 C         138.3661  140.2298  162.9233 C.2     1  UNL1        0.0633
      5 C         138.0259  140.9131  161.6321 C.3     1  UNL1        0.0753
      6 C         137.9853  142.4110  161.5643 C.2     1  UNL1        0.0203
      7 C         138.2850  143.2256  162.7877 C.2     1  UNL1        0.1317
      8 C         138.6253  142.5423  164.0789 C.2     1  UNL1        0.0407
      9 C         138.6658  141.0444  164.1467 C.2     1  UNL1        0.0148
     10 C         140.0264  141.2549  169.4889 C.3     1  UNL1        0.0540
     11 C         140.5641  142.0495  168.3359 C.3     1  UNL1        0.0160
     12 C         140.2111  141.6639  166.9299 C.3     1  UNL1        0.0058
     13 C         139.3205  140.4839  166.6769 C.3     1  UNL1        0.0240
     14 C         138.7828  139.6893  167.8300 C.3     1  UNL1        0.0058
     15 C         139.1357  140.0748  169.2360 C.3     1  UNL1        0.0160
     16 C         141.8064  141.9257  171.2586 C.3     1  UNL1        0.0858
     17 N         140.3794  141.6405  170.8949 N.3     1  UNL1       -0.2974
     18 H         139.8463  142.4825  171.1120 H       1  UNL1        0.1232
     19 N         138.2444  144.7236  162.7198 N.pl3   1  UNL1       -0.1992
     20 H         137.4586  145.2105  163.0582 H       1  UNL1        0.2985
     21 C         139.4012  145.4795  162.1364 C.2     1  UNL1        0.3224
     22 N         139.1528  146.6376  161.2160 N.2     1  UNL1       -0.0985
     23 H         138.2305  146.9015  160.9948 H       1  UNL1        0.3633
     24 C         140.8065  145.0774  162.4735 C.ar    1  UNL1        0.1114
     25 C         141.4837  145.2658  163.7986 C.ar    1  UNL1        0.0144
     26 C         142.8770  144.7211  163.6887 C.ar    1  UNL1        0.0077
     27 C         143.0609  144.1961  162.2956 C.ar    1  UNL1        0.0357
     28 S         141.7813  144.4163  161.5446 S.2     1  UNL1       -0.0792
@<TRIPOS>BOND
     1    16    17    1
     2    10    17    1
     3    10    11    1
     4    11    12    1
     5    12    13    1
     6    13     1    1
     7     1     2    2
     8     2     3    1
     9     3     4    2
    10     4     5    1
    11     5     6    1
    12     6     7    2
    13     7    19    1
    14    19    21    1
    15    21    22    2
    16    21    24    1
    17    24    25   ar
    18    25    26   ar
    19    26    27   ar
    20    27    28   ar
    21     7     8    1
    22     8     9    2
    23    13    14    1
    24    14    15    1
    25    15    10    1
    26     9     1    1
    27     9     4    1
    28    28    24   ar
    29    17    18    1
    30    19    20    1
    31    22    23    1
@<TRIPOS>MOLECULE
*****
 28 31 0 0 0
SMALL
GASTEIGER

@<TRIPOS>ATOM
      1 C         143.0136  142.6880  165.8607 C.2     1  UNL1       -0.0021
      2 C         144.2049  143.4612  165.3780 C.2     1  UNL1        0.0942
      3 N         143.7933  144.2341  164.1601 N.2     1  UNL1       -0.2482
      4 C         142.3477  143.9386  163.8902 C.2     1  UNL1        0.0633
      5 C         141.4079  144.4162  162.8231 C.3     1  UNL1        0.0753
      6 C         139.9862  143.9383  162.8071 C.2     1  UNL1        0.0203
      7 C         139.5043  142.9827  163.8581 C.2     1  UNL1        0.1317
      8 C         140.4441  142.5051  164.9251 C.2     1  UNL1        0.0407
      9 C         141.8658  142.9830  164.9412 C.2     1  UNL1        0.0148
     10 C         142.9025  139.9616  169.4391 C.3     1  UNL1        0.0540
     11 C         143.2105  141.4190  169.6158 C.3     1  UNL1        0.0160
     12 C         143.2475  142.3277  168.4230 C.3     1  UNL1        0.0058
     13 C         142.9766  141.7792  167.0535 C.3     1  UNL1        0.0240
     14 C         142.6686  140.3218  166.8768 C.3     1  UNL1        0.0058
     15 C         142.6316  139.4130  168.0696 C.3     1  UNL1        0.0160
     16 C         143.2468  137.6094  170.4872 C.3     1  UNL1        0.0858
     17 N         142.8655  139.0528  170.6319 N.3     1  UNL1       -0.2974
     18 H         143.4934  139.4549  171.3280 H       1  UNL1        0.1232
     19 N         138.0826  142.5047  163.8420 N.pl3   1  UNL1       -0.1992
     20 H         137.3608  143.0963  164.1556 H       1  UNL1        0.2985
     21 C         137.7605  141.1255  163.3481 C.2     1  UNL1        0.3224
     22 N         136.9942  140.9460  162.0712 N.2     1  UNL1       -0.0985
     23 H         136.7026  141.7334  161.5573 H       1  UNL1        0.3633
     24 C         138.2048  139.9257  164.1312 C.ar    1  UNL1        0.1114
     25 C         138.1197  139.7636  165.6200 C.ar    1  UNL1        0.0144
     26 C         138.6745  138.4150  165.9719 C.ar    1  UNL1        0.0077
     27 C         139.1024  137.7438  164.7005 C.ar    1  UNL1        0.0357
     28 S         138.8121  138.6774  163.5629 S.2     1  UNL1       -0.0792
@<TRIPOS>BOND
     1    16    17    1
     2    10    17    1
     3    10    11    1
     4    11    12    1
     5    12    13    1
     6    13     1    1
     7     1     2    2
     8     2     3    1
     9     3     4    2
    10     4     5    1
    11     5     6    1
    12     6     7    2
    13     7    19    1
    14    19    21    1
    15    21    22    2
    16    21    24    1
    17    24    25   ar
    18    25    26   ar
    19    26    27   ar
    20    27    28   ar
    21     7     8    1
    22     8     9    2
    23    13    14    1
    24    14    15    1
    25    15    10    1
    26     9     1    1
    27     9     4    1
    28    28    24   ar
    29    17    18    1
    30    19    20    1
    31    22    23    1
@<TRIPOS>MOLECULE
*****
 28 31 0 0 0
SMALL
GASTEIGER

@<TRIPOS>ATOM
      1 C         143.1320  139.8220  166.1799 C.2     1  UNL1       -0.0021
      2 C         144.0238  138.6694  165.8245 C.2     1  UNL1        0.0942
      3 N         144.8550  139.0737  164.6431 N.2     1  UNL1       -0.2482
      4 C         144.4770  140.4761  164.2684 C.2     1  UNL1        0.0633
      5 C         144.9649  141.3917  163.1851 C.3     1  UNL1        0.0753
      6 C         144.3879  142.7698  163.0516 C.2     1  UNL1        0.0203
      7 C         143.3230  143.2323  164.0014 C.2     1  UNL1        0.1317
      8 C         142.8351  142.3167  165.0847 C.2     1  UNL1        0.0407
      9 C         143.4121  140.9386  165.2182 C.2     1  UNL1        0.0148
     10 C         140.1414  139.9139  169.5411 C.3     1  UNL1        0.0540
     11 C         139.6790  140.0592  168.1216 C.3     1  UNL1        0.0160
     12 C         140.6759  140.0286  167.0012 C.3     1  UNL1        0.0058
     13 C         142.1351  139.8526  167.3003 C.3     1  UNL1        0.0240
     14 C         142.5975  139.7073  168.7199 C.3     1  UNL1        0.0058
     15 C         141.6006  139.7379  169.8402 C.3     1  UNL1        0.0160
     16 C         137.6843  139.7606  170.3715 C.3     1  UNL1        0.0858
     17 N         139.1445  139.9446  170.6615 N.3     1  UNL1       -0.2974
     18 H         139.4106  139.2060  171.3127 H       1  UNL1        0.1232
     19 N         142.7460  144.6104  163.8678 N.pl3   1  UNL1       -0.1992
     20 H         143.1191  145.3535  164.3950 H       1  UNL1        0.2985
     21 C         141.6006  144.8564  162.9311 C.2     1  UNL1        0.3224
     22 N         141.8652  145.3034  161.5239 N.2     1  UNL1       -0.0985
     23 H         142.7907  145.4354  161.2152 H       1  UNL1        0.3633
     24 C         140.1905  144.6553  163.4015 C.ar    1  UNL1        0.1114
     25 C         139.7404  144.5774  164.8303 C.ar    1  UNL1        0.0144
     26 C         138.2547  144.3708  164.8376 C.ar    1  UNL1        0.0077
     27 C         137.7866  144.3211  163.4133 C.ar    1  UNL1        0.0357
     28 S         138.9830  144.4970  162.5258 S.2     1  UNL1       -0.0792
@<TRIPOS>BOND
     1    16    17    1
     2    10    17    1
     3    10    11    1
     4    11    12    1
     5    12    13    1
     6    13     1    1
     7     1     2    2
     8     2     3    1
     9     3     4    2
    10     4     5    1
    11     5     6    1
    12     6     7    2
    13     7    19    1
    14    19    21    1
    15    21    22    2
    16    21    24    1
    17    24    25   ar
    18    25    26   ar
    19    26    27   ar
    20    27    28   ar
    21     7     8    1
    22     8     9    2
    23    13    14    1
    24    14    15    1
    25    15    10    1
    26     9     1    1
    27     9     4    1
    28    28    24   ar
    29    17    18    1
    30    19    20    1
    31    22    23    1
@<TRIPOS>MOLECULE
*****
 28 31 0 0 0
SMALL
GASTEIGER

@<TRIPOS>ATOM
      1 C         143.6324  141.1506  164.4520 C.2     1  UNL1       -0.0021
      2 C         144.4885  140.1673  163.7102 C.2     1  UNL1        0.0942
      3 N         144.5872  140.6220  162.2842 N.2     1  UNL1       -0.2482
      4 C         143.7922  141.8864  162.1447 C.2     1  UNL1        0.0633
      5 C         143.5294  142.7824  160.9708 C.3     1  UNL1        0.0753
      6 C         142.6765  144.0050  161.1368 C.2     1  UNL1        0.0203
      7 C         142.0864  144.3317  162.4766 C.2     1  UNL1        0.1317
      8 C         142.3492  143.4357  163.6504 C.2     1  UNL1        0.0407
      9 C         143.2021  142.2130  163.4845 C.2     1  UNL1        0.0148
     10 C         142.5458  140.9485  168.8142 C.3     1  UNL1        0.0540
     11 C         142.9767  142.2512  168.2082 C.3     1  UNL1        0.0160
     12 C         143.3389  142.3185  166.7541 C.3     1  UNL1        0.0058
     13 C         143.2702  141.0832  165.9061 C.3     1  UNL1        0.0240
     14 C         142.8394  139.7804  166.5122 C.3     1  UNL1        0.0058
     15 C         142.4772  139.7131  167.9662 C.3     1  UNL1        0.0160
     16 C         140.7853  140.5243  170.6772 C.3     1  UNL1        0.0858
     17 N         142.1837  140.8812  170.2683 N.3     1  UNL1       -0.2974
     18 H         142.8005  140.1891  170.6936 H       1  UNL1        0.1232
     19 N         141.2334  145.5544  162.6425 N.pl3   1  UNL1       -0.1992
     20 H         141.6340  146.3941  162.9646 H       1  UNL1        0.2985
     21 C         139.7702  145.4979  162.3175 C.2     1  UNL1        0.3224
     22 N         139.1665  146.5165  161.3966 N.2     1  UNL1       -0.0985
     23 H         139.7306  147.2221  161.0055 H       1  UNL1        0.3633
     24 C         138.9105  144.4227  162.9135 C.ar    1  UNL1        0.1114
     25 C         138.4867  144.3274  164.3492 C.ar    1  UNL1        0.0144
     26 C         137.6380  143.0999  164.5015 C.ar    1  UNL1        0.0077
     27 C         137.5374  142.4366  163.1598 C.ar    1  UNL1        0.0357
     28 S         138.3239  143.2542  162.1784 S.2     1  UNL1       -0.0792
@<TRIPOS>BOND
     1    16    17    1
     2    10    17    1
     3    10    11    1
     4    11    12    1
     5    12    13    1
     6    13     1    1
     7     1     2    2
     8     2     3    1
     9     3     4    2
    10     4     5    1
    11     5     6    1
    12     6     7    2
    13     7    19    1
    14    19    21    1
    15    21    22    2
    16    21    24    1
    17    24    25   ar
    18    25    26   ar
    19    26    27   ar
    20    27    28   ar
    21     7     8    1
    22     8     9    2
    23    13    14    1
    24    14    15    1
    25    15    10    1
    26     9     1    1
    27     9     4    1
    28    28    24   ar
    29    17    18    1
    30    19    20    1
    31    22    23    1
@<TRIPOS>MOLECULE
*****
 28 31 0 0 0
SMALL
GASTEIGER

@<TRIPOS>ATOM
      1 C         139.4758  143.0779  165.0392 C.2     1  UNL1       -0.0021
      2 C         138.1188  143.5709  164.6326 C.2     1  UNL1        0.0942
      3 N         138.2754  144.3767  163.3771 N.2     1  UNL1       -0.2482
      4 C         139.7293  144.3817  163.0079 C.2     1  UNL1        0.0633
      5 C         140.4734  145.0135  161.8690 C.3     1  UNL1        0.0753
      6 C         141.9594  144.8426  161.7574 C.2     1  UNL1        0.0203
      7 C         142.7013  144.0399  162.7847 C.2     1  UNL1        0.1317
      8 C         141.9572  143.4081  163.9235 C.2     1  UNL1        0.0407
      9 C         140.4712  143.5790  164.0351 C.2     1  UNL1        0.0148
     10 C         140.3989  140.5409  168.6395 C.3     1  UNL1        0.0540
     11 C         140.7376  142.0022  168.6449 C.3     1  UNL1        0.0160
     12 C         140.4299  142.8478  167.4448 C.3     1  UNL1        0.0058
     13 C         139.7835  142.2323  166.2393 C.3     1  UNL1        0.0240
     14 C         139.4448  140.7710  166.2339 C.3     1  UNL1        0.0058
     15 C         139.7525  139.9253  167.4340 C.3     1  UNL1        0.0160
     16 C         142.0952  139.1681  170.0495 C.3     1  UNL1        0.0858
     17 N         140.7067  139.6953  169.8396 N.3     1  UNL1       -0.2974
     18 H         140.4769  140.2549  170.6608 H       1  UNL1        0.1232
     19 N         144.1874  143.8690  162.6730 N.pl3   1  UNL1       -0.1992
     20 H         144.7908  144.5511  163.0470 H       1  UNL1        0.2985
     21 C         144.7541  142.6588  161.9916 C.2     1  UNL1        0.3224
     22 N         145.3866  142.7878  160.6376 N.2     1  UNL1       -0.0985
     23 H         145.4298  143.6667  160.1961 H       1  UNL1        0.3633
     24 C         144.6883  141.3196  162.6641 C.ar    1  UNL1        0.1114
     25 C         145.3766  140.9399  163.9416 C.ar    1  UNL1        0.0144
     26 C         145.0364  139.5106  164.2444 C.ar    1  UNL1        0.0077
     27 C         144.1377  139.0072  163.1539 C.ar    1  UNL1        0.0357
     28 S         143.9226  140.1252  162.1773 S.2     1  UNL1       -0.0792
@<TRIPOS>BOND
     1    16    17    1
     2    10    17    1
     3    10    11    1
     4    11    12    1
     5    12    13    1
     6    13     1    1
     7     1     2    2
     8     2     3    1
     9     3     4    2
    10     4     5    1
    11     5     6    1
    12     6     7    2
    13     7    19    1
    14    19    21    1
    15    21    22    2
    16    21    24    1
    17    24    25   ar
    18    25    26   ar
    19    26    27   ar
    20    27    28   ar
    21     7     8    1
    22     8     9    2
    23    13    14    1
    24    14    15    1
    25    15    10    1
    26     9     1    1
    27     9     4    1
    28    28    24   ar
    29    17    18    1
    30    19    20    1
    31    22    23    1
@<TRIPOS>MOLECULE
*****
 28 31 0 0 0
SMALL
GASTEIGER

@<TRIPOS>ATOM
      1 C         139.9978  139.6571  166.8313 C.2     1  UNL1       -0.0021
      2 C         138.5476  139.3425  167.0503 C.2     1  UNL1        0.0942
      3 N         138.0872  138.4690  165.9212 N.2     1  UNL1       -0.2482
      4 C         139.2528  138.2437  165.0044 C.2     1  UNL1        0.0633
      5 C         139.3916  137.4647  163.7300 C.3     1  UNL1        0.0753
      6 C         140.7111  137.4201  163.0182 C.2     1  UNL1        0.0203
      7 C         141.8919  138.1544  163.5807 C.2     1  UNL1        0.1317
      8 C         141.7532  138.9333  164.8551 C.2     1  UNL1        0.0407
      9 C         140.4337  138.9780  165.5669 C.2     1  UNL1        0.0148
     10 C         142.5865  142.1929  169.4994 C.3     1  UNL1        0.0540
     11 C         141.3402  142.7693  168.8958 C.3     1  UNL1        0.0160
     12 C         140.4773  141.9240  168.0064 C.3     1  UNL1        0.0058
     13 C         140.8607  140.5024  167.7207 C.3     1  UNL1        0.0240
     14 C         142.1071  139.9259  168.3243 C.3     1  UNL1        0.0058
     15 C         142.9700  140.7712  169.2136 C.3     1  UNL1        0.0160
     16 C         144.9419  142.9974  170.2444 C.3     1  UNL1        0.0858
     17 N         143.4494  143.0382  170.3887 N.3     1  UNL1       -0.2974
     18 H         143.1656  144.0066  170.2402 H       1  UNL1        0.1232
     19 N         143.2115  138.1098  162.8688 N.pl3   1  UNL1       -0.1992
     20 H         143.8212  137.3496  163.0093 H       1  UNL1        0.2985
     21 C         143.6023  139.2233  161.9430 C.2     1  UNL1        0.3224
     22 N         143.3594  139.0930  160.4685 N.2     1  UNL1       -0.0985
     23 H         142.9435  138.2765  160.1085 H       1  UNL1        0.3633
     24 C         144.2360  140.4674  162.4916 C.ar    1  UNL1        0.1114
     25 C         145.1494  140.5414  163.6791 C.ar    1  UNL1        0.0144
     26 C         145.5455  141.9756  163.8704 C.ar    1  UNL1        0.0077
     27 C         144.8769  142.7877  162.8011 C.ar    1  UNL1        0.0357
     28 S         144.0676  141.8556  161.9489 S.2     1  UNL1       -0.0792
@<TRIPOS>BOND
     1    16    17    1
     2    10    17    1
     3    10    11    1
     4    11    12    1
     5    12    13    1
     6    13     1    1
     7     1     2    2
     8     2     3    1
     9     3     4    2
    10     4     5    1
    11     5     6    1
    12     6     7    2
    13     7    19    1
    14    19    21    1
    15    21    22    2
    16    21    24    1
    17    24    25   ar
    18    25    26   ar
    19    26    27   ar
    20    27    28   ar
    21     7     8    1
    22     8     9    2
    23    13    14    1
    24    14    15    1
    25    15    10    1
    26     9     1    1
    27     9     4    1
    28    28    24   ar
    29    17    18    1
    30    19    20    1
    31    22    23    1
@<TRIPOS>MOLECULE
*****
 28 31 0 0 0
SMALL
GASTEIGER

@<TRIPOS>ATOM
      1 C         139.9512  139.3959  165.8813 C.2     1  UNL1       -0.0021
      2 C         138.7649  138.5648  165.4915 C.2     1  UNL1        0.0942
      3 N         139.1383  137.7639  164.2794 N.2     1  UNL1       -0.2482
      4 C         140.5554  138.1000  163.9201 C.2     1  UNL1        0.0633
      5 C         141.4531  137.6179  162.8194 C.3     1  UNL1        0.0753
      6 C         142.8532  138.1445  162.7087 C.2     1  UNL1        0.0203
      7 C         143.3556  139.1531  163.6988 C.2     1  UNL1        0.1317
      8 C         142.4579  139.6352  164.7995 C.2     1  UNL1        0.0407
      9 C         141.0578  139.1087  164.9102 C.2     1  UNL1        0.0148
     10 C         140.1548  142.2499  169.3546 C.3     1  UNL1        0.0540
     11 C         140.5531  142.7081  167.9829 C.3     1  UNL1        0.0160
     12 C         140.4852  141.7568  166.8252 C.3     1  UNL1        0.0058
     13 C         140.0191  140.3473  167.0390 C.3     1  UNL1        0.0240
     14 C         139.6208  139.8890  168.4107 C.3     1  UNL1        0.0058
     15 C         139.6887  140.8403  169.5685 C.3     1  UNL1        0.0160
     16 C         140.3875  144.6717  170.2660 C.3     1  UNL1        0.0858
     17 N         140.2227  143.2013  170.5123 N.3     1  UNL1       -0.2974
     18 H         139.3569  143.0862  171.0391 H       1  UNL1        0.1232
     19 N         144.7559  139.6797  163.5881 N.pl3   1  UNL1       -0.1992
     20 H         145.5117  139.1411  163.9164 H       1  UNL1        0.2985
     21 C         145.0044  141.0269  162.9771 C.2     1  UNL1        0.3224
     22 N         146.2837  141.7559  163.2635 N.2     1  UNL1       -0.0985
     23 H         146.9602  141.3501  163.8526 H       1  UNL1        0.3633
     24 C         143.9736  141.6451  162.0796 C.ar    1  UNL1        0.1114
     25 C         142.9371  142.6493  162.4884 C.ar    1  UNL1        0.0144
     26 C         142.1213  142.9926  161.2773 C.ar    1  UNL1        0.0077
     27 C         142.6537  142.2005  160.1200 C.ar    1  UNL1        0.0357
     28 S         143.7985  141.3677  160.6159 S.2     1  UNL1       -0.0792
@<TRIPOS>BOND
     1    16    17    1
     2    10    17    1
     3    10    11    1
     4    11    12    1
     5    12    13    1
     6    13     1    1
     7     1     2    2
     8     2     3    1
     9     3     4    2
    10     4     5    1
    11     5     6    1
    12     6     7    2
    13     7    19    1
    14    19    21    1
    15    21    22    2
    16    21    24    1
    17    24    25   ar
    18    25    26   ar
    19    26    27   ar
    20    27    28   ar
    21     7     8    1
    22     8     9    2
    23    13    14    1
    24    14    15    1
    25    15    10    1
    26     9     1    1
    27     9     4    1
    28    28    24   ar
    29    17    18    1
    30    19    20    1
    31    22    23    1
@<TRIPOS>MOLECULE
*****
 28 31 0 0 0
SMALL
GASTEIGER

@<TRIPOS>ATOM
      1 C         141.2788  138.5355  164.8886 C.2     1  UNL1       -0.0021
      2 C         140.4351  137.3195  164.6446 C.2     1  UNL1        0.0942
      3 N         140.7010  136.8437  163.2472 N.2     1  UNL1       -0.2482
      4 C         141.7090  137.7656  162.6274 C.2     1  UNL1        0.0633
      5 C         142.3478  137.7880  161.2705 C.3     1  UNL1        0.0753
      6 C         143.3437  138.8560  160.9280 C.2     1  UNL1        0.0203
      7 C         143.7008  139.9016  161.9424 C.2     1  UNL1        0.1317
      8 C         143.0620  139.8792  163.2994 C.2     1  UNL1        0.0407
      9 C         142.0661  138.8112  163.6419 C.2     1  UNL1        0.0148
     10 C         141.4228  140.9353  168.6926 C.3     1  UNL1        0.0540
     11 C         142.6197  140.1407  168.2613 C.3     1  UNL1        0.0160
     12 C         142.5717  139.3408  166.9933 C.3     1  UNL1        0.0058
     13 C         141.3268  139.3354  166.1566 C.3     1  UNL1        0.0240
     14 C         140.1298  140.1300  166.5879 C.3     1  UNL1        0.0058
     15 C         140.1779  140.9299  167.8559 C.3     1  UNL1        0.0160
     16 C         141.3361  143.2283  169.9110 C.3     1  UNL1        0.0858
     17 N         141.4708  141.7352  169.9606 N.3     1  UNL1       -0.2974
     18 H         140.7164  141.3911  170.5546 H       1  UNL1        0.1232
     19 N         144.6968  140.9697  161.5998 N.pl3   1  UNL1       -0.1992
     20 H         145.1082  140.9906  160.7057 H       1  UNL1        0.2985
     21 C         145.0660  142.0059  162.6197 C.2     1  UNL1        0.3224
     22 N         146.3465  141.8770  163.3902 N.2     1  UNL1       -0.0985
     23 H         146.9446  141.1123  163.2267 H       1  UNL1        0.3633
     24 C         144.1547  143.1710  162.8689 C.ar    1  UNL1        0.1114
     25 C         144.1280  144.0207  164.1047 C.ar    1  UNL1        0.0144
     26 C         143.0669  145.0659  163.9258 C.ar    1  UNL1        0.0077
     27 C         142.4379  144.8619  162.5793 C.ar    1  UNL1        0.0357
     28 S         143.1102  143.6909  161.9262 S.2     1  UNL1       -0.0792
@<TRIPOS>BOND
     1    16    17    1
     2    10    17    1
     3    10    11    1
     4    11    12    1
     5    12    13    1
     6    13     1    1
     7     1     2    2
     8     2     3    1
     9     3     4    2
    10     4     5    1
    11     5     6    1
    12     6     7    2
    13     7    19    1
    14    19    21    1
    15    21    22    2
    16    21    24    1
    17    24    25   ar
    18    25    26   ar
    19    26    27   ar
    20    27    28   ar
    21     7     8    1
    22     8     9    2
    23    13    14    1
    24    14    15    1
    25    15    10    1
    26     9     1    1
    27     9     4    1
    28    28    24   ar
    29    17    18    1
    30    19    20    1
    31    22    23    1
