@<TRIPOS>MOLECULE
*****
 33 36 0 0 0
SMALL
GASTEIGER

@<TRIPOS>ATOM
      1 N         143.1856  142.6466  162.2412 N.pl3   1  UNL1       -0.1707
      2 C         144.5737  142.2574  161.8269 C.3     1  UNL1        0.2077
      3 C         145.5584  141.7851  162.8551 C.3     1  UNL1        0.0560
      4 C         145.1551  141.7019  164.2974 C.3     1  UNL1        0.0341
      5 C         143.7670  142.0911  164.7117 C.ar    1  UNL1        0.0150
      6 C         143.3636  142.0079  166.1540 C.ar    1  UNL1        0.0004
      7 C         141.9755  142.3971  166.5682 C.ar    1  UNL1        0.0158
      8 C         140.9906  142.8695  165.5401 C.ar    1  UNL1        0.0047
      9 C         141.3940  142.9526  164.0977 C.ar    1  UNL1        0.0400
     10 C         142.7822  142.5634  163.6835 C.ar    1  UNL1        0.1347
     11 C         141.5721  142.3140  168.0106 C.2     1  UNL1        0.0863
     12 N         142.2201  143.2106  169.0235 N.2     1  UNL1       -0.1821
     13 N         141.8168  143.1275  170.4658 N.am    1  UNL1       -0.1976
     14 C         140.7654  142.1476  170.8953 C.2     1  UNL1        0.2921
     15 O         140.3621  142.0645  172.3377 O.2     1  UNL1       -0.2612
     16 S         140.1174  141.2509  169.8824 S.3     1  UNL1       -0.0505
     17 C         140.5207  141.3340  168.4400 C.3     1  UNL1        0.0977
     18 C         139.8727  140.4374  167.4271 C.3     1  UNL1        0.0186
     19 H         142.2421  143.7160  171.1306 H       1  UNL1        0.1781
     20 N         142.0139  144.5877  160.9726 N.2     1  UNL1       -0.0650
     21 C         142.2007  143.1190  161.2130 C.2     1  UNL1        0.3227
     22 C         141.4027  142.1226  160.4254 C.ar    1  UNL1        0.0854
     23 C         141.9453  141.5767  159.1379 C.ar    1  UNL1        0.0107
     24 C         141.1473  140.5803  158.3502 C.ar    1  UNL1        0.0403
     25 C         139.8067  140.1298  158.8501 C.ar    1  UNL1        0.1724
     26 C         139.2641  140.6756  160.1376 C.ar    1  UNL1        0.1726
     27 C         140.0621  141.6720  160.9252 C.ar    1  UNL1        0.0474
     28 O         139.0087  139.1334  158.0625 O.3     1  UNL1       -0.4684
     29 C         139.7090  138.0647  157.2766 C.3     1  UNL1        0.2526
     30 O         137.9236  140.2251  160.6375 O.3     1  UNL1       -0.4684
     31 C         137.7958  138.9237  161.3723 C.3     1  UNL1        0.2526
     32 C         141.4980  145.4167  158.5650 C.3     1  UNL1        0.0625
     33 C         141.0291  145.0601  159.9445 C.3     1  UNL1        0.2633
@<TRIPOS>BOND
     1    32    33    1
     2    33    20    1
     3    20    21    2
     4    21    22    1
     5    22    23   ar
     6    23    24   ar
     7    24    25   ar
     8    25    28    1
     9    28    29    1
    10    25    26   ar
    11    26    30    1
    12    30    31    1
    13    26    27   ar
    14    21     1    1
    15     1     2    1
    16     2     3    1
    17     3     4    1
    18     4     5    1
    19     5     6   ar
    20     6     7   ar
    21     7    11    1
    22    11    12    2
    23    12    13    1
    24    13    14   am
    25    14    15    2
    26    14    16    1
    27    16    17    1
    28    17    18    1
    29     7     8   ar
    30     8     9   ar
    31     9    10   ar
    32    27    22   ar
    33    10     1    1
    34    10     5   ar
    35    17    11    1
    36    13    19    1
@<TRIPOS>MOLECULE
*****
 33 36 0 0 0
SMALL
GASTEIGER

@<TRIPOS>ATOM
      1 N         143.0968  141.6019  162.1683 N.pl3   1  UNL1       -0.1707
      2 C         144.5437  141.6613  161.7772 C.3     1  UNL1        0.2077
      3 C         145.6005  141.8017  162.8323 C.3     1  UNL1        0.0560
      4 C         145.2105  141.8828  164.2785 C.3     1  UNL1        0.0341
      5 C         143.7636  141.8234  164.6695 C.ar    1  UNL1        0.0150
      6 C         143.3736  141.9044  166.1157 C.ar    1  UNL1        0.0004
      7 C         141.9267  141.8450  166.5067 C.ar    1  UNL1        0.0158
      8 C         140.8698  141.7045  165.4516 C.ar    1  UNL1        0.0047
      9 C         141.2598  141.6235  164.0055 C.ar    1  UNL1        0.0400
     10 C         142.7068  141.6829  163.6144 C.ar    1  UNL1        0.1347
     11 C         141.5367  141.9260  167.9529 C.2     1  UNL1        0.0863
     12 N         140.8184  143.1373  168.4692 N.2     1  UNL1       -0.1821
     13 N         140.4284  143.2184  169.9153 N.am    1  UNL1       -0.1976
     14 C         140.7567  142.0880  170.8451 C.2     1  UNL1        0.2921
     15 O         140.3667  142.1691  172.2913 O.2     1  UNL1       -0.2612
     16 S         141.4750  140.8766  170.3288 S.3     1  UNL1       -0.0505
     17 C         141.8651  140.7956  168.8827 C.3     1  UNL1        0.0977
     18 C         142.5834  139.5843  168.3663 C.3     1  UNL1        0.0186
     19 H         139.9570  144.0134  170.2542 H       1  UNL1        0.1781
     20 N         141.3210  140.1562  160.9408 N.2     1  UNL1       -0.0650
     21 C         142.0398  141.4614  161.1132 C.2     1  UNL1        0.3227
     22 C         141.7017  142.6261  160.2305 C.ar    1  UNL1        0.0854
     23 C         142.2385  142.6874  158.8312 C.ar    1  UNL1        0.0107
     24 C         141.9004  143.8522  157.9485 C.ar    1  UNL1        0.0403
     25 C         141.0255  144.9556  158.4652 C.ar    1  UNL1        0.1724
     26 C         140.4888  144.8944  159.8646 C.ar    1  UNL1        0.1726
     27 C         140.8269  143.7297  160.7472 C.ar    1  UNL1        0.0474
     28 O         140.6875  146.1203  157.5826 O.3     1  UNL1       -0.4684
     29 C         139.8049  145.9231  156.3858 C.3     1  UNL1        0.2526
     30 O         139.6140  145.9978  160.3813 O.3     1  UNL1       -0.4684
     31 C         139.6458  146.3613  161.8362 C.3     1  UNL1        0.2526
     32 C         138.8149  140.0041  160.2727 C.3     1  UNL1        0.0625
     33 C         140.2641  140.0157  159.8857 C.3     1  UNL1        0.2633
@<TRIPOS>BOND
     1    32    33    1
     2    33    20    1
     3    20    21    2
     4    21    22    1
     5    22    23   ar
     6    23    24   ar
     7    24    25   ar
     8    25    28    1
     9    28    29    1
    10    25    26   ar
    11    26    30    1
    12    30    31    1
    13    26    27   ar
    14    21     1    1
    15     1     2    1
    16     2     3    1
    17     3     4    1
    18     4     5    1
    19     5     6   ar
    20     6     7   ar
    21     7    11    1
    22    11    12    2
    23    12    13    1
    24    13    14   am
    25    14    15    2
    26    14    16    1
    27    16    17    1
    28    17    18    1
    29     7     8   ar
    30     8     9   ar
    31     9    10   ar
    32    27    22   ar
    33    10     1    1
    34    10     5   ar
    35    17    11    1
    36    13    19    1
@<TRIPOS>MOLECULE
*****
 33 36 0 0 0
SMALL
GASTEIGER

@<TRIPOS>ATOM
      1 N         139.0757  141.5737  163.8674 N.pl3   1  UNL1       -0.1707
      2 C         138.0898  142.3740  164.6657 C.3     1  UNL1        0.2077
      3 C         137.6287  143.7107  164.1652 C.3     1  UNL1        0.0560
      4 C         138.1535  144.2471  162.8664 C.3     1  UNL1        0.0341
      5 C         139.1394  143.4467  162.0681 C.ar    1  UNL1        0.0150
      6 C         139.6643  143.9830  160.7693 C.ar    1  UNL1        0.0004
      7 C         140.6502  143.1826  159.9710 C.ar    1  UNL1        0.0158
      8 C         141.1113  141.8458  160.4715 C.ar    1  UNL1        0.0047
      9 C         140.5865  141.3095  161.7703 C.ar    1  UNL1        0.0400
     10 C         139.6005  142.1100  162.5686 C.ar    1  UNL1        0.1347
     11 C         141.1750  143.7189  158.6722 C.2     1  UNL1        0.0863
     12 N         142.3683  144.6276  158.6634 N.2     1  UNL1       -0.1821
     13 N         142.8932  145.1640  157.3646 N.am    1  UNL1       -0.1976
     14 C         142.2247  144.7915  156.0745 C.2     1  UNL1        0.2921
     15 O         142.7495  145.3278  154.7757 O.2     1  UNL1       -0.2612
     16 S         141.0313  143.8828  156.0832 S.3     1  UNL1       -0.0505
     17 C         140.5064  143.3464  157.3820 C.3     1  UNL1        0.0977
     18 C         139.3131  142.4377  157.3908 C.3     1  UNL1        0.0186
     19 H         143.6764  145.7604  157.3589 H       1  UNL1        0.1781
     20 N         139.1217  138.9847  163.6539 N.2     1  UNL1       -0.0650
     21 C         139.5368  140.2369  164.3679 C.2     1  UNL1        0.3227
     22 C         140.4130  140.1522  165.5824 C.ar    1  UNL1        0.0854
     23 C         141.9028  140.2537  165.4410 C.ar    1  UNL1        0.0107
     24 C         142.7791  140.1691  166.6556 C.ar    1  UNL1        0.0403
     25 C         142.1654  139.9830  168.0116 C.ar    1  UNL1        0.1724
     26 C         140.6755  139.8816  168.1530 C.ar    1  UNL1        0.1726
     27 C         139.7993  139.9662  166.9385 C.ar    1  UNL1        0.0474
     28 O         143.0416  139.8984  169.2261 O.3     1  UNL1       -0.4684
     29 C         143.3127  141.1273  170.0424 C.3     1  UNL1        0.2526
     30 O         140.0618  139.6955  169.5090 O.3     1  UNL1       -0.4684
     31 C         139.5532  140.8830  170.2714 C.3     1  UNL1        0.2526
     32 C         140.8898  137.0814  163.6846 C.3     1  UNL1        0.0625
     33 C         139.5828  137.6480  164.1543 C.3     1  UNL1        0.2633
@<TRIPOS>BOND
     1    32    33    1
     2    33    20    1
     3    20    21    2
     4    21    22    1
     5    22    23   ar
     6    23    24   ar
     7    24    25   ar
     8    25    28    1
     9    28    29    1
    10    25    26   ar
    11    26    30    1
    12    30    31    1
    13    26    27   ar
    14    21     1    1
    15     1     2    1
    16     2     3    1
    17     3     4    1
    18     4     5    1
    19     5     6   ar
    20     6     7   ar
    21     7    11    1
    22    11    12    2
    23    12    13    1
    24    13    14   am
    25    14    15    2
    26    14    16    1
    27    16    17    1
    28    17    18    1
    29     7     8   ar
    30     8     9   ar
    31     9    10   ar
    32    27    22   ar
    33    10     1    1
    34    10     5   ar
    35    17    11    1
    36    13    19    1
@<TRIPOS>MOLECULE
*****
 33 36 0 0 0
SMALL
GASTEIGER

@<TRIPOS>ATOM
      1 N         142.6718  142.5182  164.2367 N.pl3   1  UNL1       -0.1707
      2 C         143.9414  142.9186  164.9279 C.3     1  UNL1        0.2077
      3 C         145.2679  142.5498  164.3326 C.3     1  UNL1        0.0560
      4 C         145.3247  141.7806  163.0461 C.3     1  UNL1        0.0341
      5 C         144.0551  141.3802  162.3549 C.ar    1  UNL1        0.0150
      6 C         144.1120  140.6110  161.0684 C.ar    1  UNL1        0.0004
      7 C         142.8424  140.2106  160.3772 C.ar    1  UNL1        0.0158
      8 C         141.5159  140.5794  160.9725 C.ar    1  UNL1        0.0047
      9 C         141.4590  141.3486  162.2591 C.ar    1  UNL1        0.0400
     10 C         142.7287  141.7490  162.9502 C.ar    1  UNL1        0.1347
     11 C         142.8993  139.4414  159.0907 C.2     1  UNL1        0.0863
     12 N         142.9739  137.9435  159.1151 N.2     1  UNL1       -0.1821
     13 N         143.0308  137.1743  157.8286 N.am    1  UNL1       -0.1976
     14 C         143.0130  137.9031  156.5177 C.2     1  UNL1        0.2921
     15 O         143.0698  137.1339  155.2311 O.2     1  UNL1       -0.2612
     16 S         142.9383  139.4010  156.4932 S.3     1  UNL1       -0.0505
     17 C         142.8815  140.1702  157.7797 C.3     1  UNL1        0.0977
     18 C         142.8068  141.6681  157.7553 C.3     1  UNL1        0.0186
     19 H         143.0798  136.1912  157.8446 H       1  UNL1        0.1781
     20 N         140.5622  144.0344  164.2662 N.2     1  UNL1       -0.0650
     21 C         141.3453  142.8870  164.8321 C.2     1  UNL1        0.3227
     22 C         140.8018  142.1083  165.9932 C.ar    1  UNL1        0.0854
     23 C         141.1286  142.5272  167.3960 C.ar    1  UNL1        0.0107
     24 C         140.5851  141.7485  168.5572 C.ar    1  UNL1        0.0403
     25 C         139.7149  140.5509  168.3156 C.ar    1  UNL1        0.1724
     26 C         139.3881  140.1320  166.9128 C.ar    1  UNL1        0.1726
     27 C         139.9315  140.9107  165.7517 C.ar    1  UNL1        0.0474
     28 O         139.1714  139.7723  169.4767 O.3     1  UNL1       -0.4684
     29 C         139.8381  139.8615  170.8174 C.3     1  UNL1        0.2526
     30 O         138.5178  138.9344  166.6712 O.3     1  UNL1       -0.4684
     31 C         138.7198  138.0958  165.4440 C.3     1  UNL1        0.2526
     32 C         137.9688  143.8802  164.2522 C.3     1  UNL1        0.0625
     33 C         139.2358  144.4032  164.8615 C.3     1  UNL1        0.2633
@<TRIPOS>BOND
     1    32    33    1
     2    33    20    1
     3    20    21    2
     4    21    22    1
     5    22    23   ar
     6    23    24   ar
     7    24    25   ar
     8    25    28    1
     9    28    29    1
    10    25    26   ar
    11    26    30    1
    12    30    31    1
    13    26    27   ar
    14    21     1    1
    15     1     2    1
    16     2     3    1
    17     3     4    1
    18     4     5    1
    19     5     6   ar
    20     6     7   ar
    21     7    11    1
    22    11    12    2
    23    12    13    1
    24    13    14   am
    25    14    15    2
    26    14    16    1
    27    16    17    1
    28    17    18    1
    29     7     8   ar
    30     8     9   ar
    31     9    10   ar
    32    27    22   ar
    33    10     1    1
    34    10     5   ar
    35    17    11    1
    36    13    19    1
@<TRIPOS>MOLECULE
*****
 33 36 0 0 0
SMALL
GASTEIGER

@<TRIPOS>ATOM
      1 N         142.3630  142.4735  164.3828 N.pl3   1  UNL1       -0.1707
      2 C         143.5150  142.7241  165.3102 C.3     1  UNL1        0.2077
      3 C         144.9194  142.4746  164.8461 C.3     1  UNL1        0.0560
      4 C         145.1718  141.9747  163.4546 C.3     1  UNL1        0.0341
      5 C         144.0198  141.7241  162.5272 C.ar    1  UNL1        0.0150
      6 C         144.2722  141.2242  161.1357 C.ar    1  UNL1        0.0004
      7 C         143.1203  140.9736  160.2083 C.ar    1  UNL1        0.0158
      8 C         141.7158  141.2231  160.6723 C.ar    1  UNL1        0.0047
      9 C         141.4634  141.7230  162.0639 C.ar    1  UNL1        0.0400
     10 C         142.6154  141.9736  162.9913 C.ar    1  UNL1        0.1347
     11 C         143.3727  140.4736  158.8167 C.2     1  UNL1        0.0863
     12 N         143.3492  139.0009  158.5332 N.2     1  UNL1       -0.1821
     13 N         143.6016  138.5010  157.1416 N.am    1  UNL1       -0.1976
     14 C         143.8775  139.4737  156.0337 C.2     1  UNL1        0.2921
     15 O         144.1299  138.9737  154.6422 O.2     1  UNL1       -0.2612
     16 S         143.9011  140.9465  156.3173 S.3     1  UNL1       -0.0505
     17 C         143.6487  141.4465  157.7088 C.3     1  UNL1        0.0977
     18 C         143.6722  142.9192  157.9924 C.3     1  UNL1        0.0186
     19 H         143.5861  137.5343  156.9555 H       1  UNL1        0.1781
     20 N         140.3367  144.0754  164.6622 N.2     1  UNL1       -0.0650
     21 C         140.9586  142.7230  164.8469 C.2     1  UNL1        0.3227
     22 C         140.1760  141.6200  165.4956 C.ar    1  UNL1        0.0854
     23 C         139.2008  140.8165  164.6873 C.ar    1  UNL1        0.0107
     24 C         138.4182  139.7134  165.3361 C.ar    1  UNL1        0.0403
     25 C         138.6109  139.4139  166.7932 C.ar    1  UNL1        0.1724
     26 C         139.5860  140.2174  167.6015 C.ar    1  UNL1        0.1726
     27 C         140.3686  141.3204  166.9528 C.ar    1  UNL1        0.0474
     28 O         137.8283  138.3109  167.4420 O.3     1  UNL1       -0.4684
     29 C         137.5442  137.0473  166.6851 C.3     1  UNL1        0.2526
     30 O         139.7787  139.9179  169.0586 O.3     1  UNL1       -0.4684
     31 C         139.5587  140.9933  170.0809 C.3     1  UNL1        0.2526
     32 C         137.7921  144.2176  164.1575 C.3     1  UNL1        0.0625
     33 C         138.9323  144.3249  165.1262 C.3     1  UNL1        0.2633
@<TRIPOS>BOND
     1    32    33    1
     2    33    20    1
     3    20    21    2
     4    21    22    1
     5    22    23   ar
     6    23    24   ar
     7    24    25   ar
     8    25    28    1
     9    28    29    1
    10    25    26   ar
    11    26    30    1
    12    30    31    1
    13    26    27   ar
    14    21     1    1
    15     1     2    1
    16     2     3    1
    17     3     4    1
    18     4     5    1
    19     5     6   ar
    20     6     7   ar
    21     7    11    1
    22    11    12    2
    23    12    13    1
    24    13    14   am
    25    14    15    2
    26    14    16    1
    27    16    17    1
    28    17    18    1
    29     7     8   ar
    30     8     9   ar
    31     9    10   ar
    32    27    22   ar
    33    10     1    1
    34    10     5   ar
    35    17    11    1
    36    13    19    1
@<TRIPOS>MOLECULE
*****
 33 36 0 0 0
SMALL
GASTEIGER

@<TRIPOS>ATOM
      1 N         142.8275  142.0715  162.1671 N.pl3   1  UNL1       -0.1707
      2 C         143.9969  141.2649  161.6856 C.3     1  UNL1        0.2077
      3 C         144.8181  140.4774  162.6630 C.3     1  UNL1        0.0560
      4 C         144.4701  140.4966  164.1219 C.3     1  UNL1        0.0341
      5 C         143.3008  141.3033  164.6034 C.ar    1  UNL1        0.0150
      6 C         142.9527  141.3225  166.0624 C.ar    1  UNL1        0.0004
      7 C         141.7834  142.1291  166.5439 C.ar    1  UNL1        0.0158
      8 C         140.9620  142.9167  165.5665 C.ar    1  UNL1        0.0047
      9 C         141.3101  142.8975  164.1075 C.ar    1  UNL1        0.0400
     10 C         142.4795  142.0907  163.6260 C.ar    1  UNL1        0.1347
     11 C         141.4353  142.1483  168.0028 C.2     1  UNL1        0.0863
     12 N         142.1821  143.0503  168.9402 N.2     1  UNL1       -0.1821
     13 N         141.8340  143.0695  170.3992 N.am    1  UNL1       -0.1976
     14 C         140.7392  142.1867  170.9207 C.2     1  UNL1        0.2921
     15 O         140.3911  142.2059  172.3796 O.2     1  UNL1       -0.2612
     16 S         139.9924  141.2847  169.9833 S.3     1  UNL1       -0.0505
     17 C         140.3404  141.2655  168.5243 C.3     1  UNL1        0.0977
     18 C         139.5937  140.3635  167.5869 C.3     1  UNL1        0.0186
     19 H         142.3241  143.6615  171.0144 H       1  UNL1        0.1781
     20 N         142.2648  144.3247  161.0023 N.2     1  UNL1       -0.0650
     21 C         142.0062  142.8591  161.1897 C.2     1  UNL1        0.3227
     22 C         140.9264  142.1810  160.3997 C.ar    1  UNL1        0.0854
     23 C         139.5252  142.1318  160.9330 C.ar    1  UNL1        0.0107
     24 C         138.4454  141.4537  160.1430 C.ar    1  UNL1        0.0403
     25 C         138.7667  140.8247  158.8197 C.ar    1  UNL1        0.1724
     26 C         140.1678  140.8739  158.2864 C.ar    1  UNL1        0.1726
     27 C         141.2476  141.5520  159.0763 C.ar    1  UNL1        0.0474
     28 O         137.6868  140.1467  158.0297 O.3     1  UNL1       -0.4684
     29 C         136.9156  140.9166  156.9990 C.3     1  UNL1        0.2526
     30 O         140.4890  140.2450  156.9631 O.3     1  UNL1       -0.4684
     31 C         141.5733  139.2130  156.8667 C.3     1  UNL1        0.2526
     32 C         140.1746  145.7744  160.4737 C.3     1  UNL1        0.0625
     33 C         141.4435  145.1122  160.0249 C.3     1  UNL1        0.2633
@<TRIPOS>BOND
     1    32    33    1
     2    33    20    1
     3    20    21    2
     4    21    22    1
     5    22    23   ar
     6    23    24   ar
     7    24    25   ar
     8    25    28    1
     9    28    29    1
    10    25    26   ar
    11    26    30    1
    12    30    31    1
    13    26    27   ar
    14    21     1    1
    15     1     2    1
    16     2     3    1
    17     3     4    1
    18     4     5    1
    19     5     6   ar
    20     6     7   ar
    21     7    11    1
    22    11    12    2
    23    12    13    1
    24    13    14   am
    25    14    15    2
    26    14    16    1
    27    16    17    1
    28    17    18    1
    29     7     8   ar
    30     8     9   ar
    31     9    10   ar
    32    27    22   ar
    33    10     1    1
    34    10     5   ar
    35    17    11    1
    36    13    19    1
@<TRIPOS>MOLECULE
*****
 33 36 0 0 0
SMALL
GASTEIGER

@<TRIPOS>ATOM
      1 N         139.3197  142.5519  161.8601 N.pl3   1  UNL1       -0.1707
      2 C         138.1985  141.6986  161.3457 C.3     1  UNL1        0.2077
      3 C         137.4326  140.8184  162.2883 C.3     1  UNL1        0.0560
      4 C         137.7879  140.7915  163.7454 C.3     1  UNL1        0.0341
      5 C         138.9091  141.6448  164.2598 C.ar    1  UNL1        0.0150
      6 C         139.2644  141.6179  165.7168 C.ar    1  UNL1        0.0004
      7 C         140.3857  142.4712  166.2313 C.ar    1  UNL1        0.0158
      8 C         141.1516  143.3515  165.2886 C.ar    1  UNL1        0.0047
      9 C         140.7963  143.3784  163.8316 C.ar    1  UNL1        0.0400
     10 C         139.6750  142.5250  163.3171 C.ar    1  UNL1        0.1347
     11 C         140.7410  142.4443  167.6883 C.2     1  UNL1        0.0863
     12 N         140.1281  143.4397  168.6283 N.2     1  UNL1       -0.1821
     13 N         140.4835  143.4128  170.0853 N.am    1  UNL1       -0.1976
     14 C         141.4516  142.3905  170.6024 C.2     1  UNL1        0.2921
     15 O         141.8070  142.3636  172.0595 O.2     1  UNL1       -0.2612
     16 S         142.0646  141.3951  169.6625 S.3     1  UNL1       -0.0505
     17 C         141.7092  141.4220  168.2054 C.3     1  UNL1        0.0977
     18 C         142.3221  140.4265  167.2655 C.3     1  UNL1        0.0186
     19 H         140.0812  144.0662  170.7022 H       1  UNL1        0.1781
     20 N         139.6580  144.8540  160.7042 N.2     1  UNL1       -0.0650
     21 C         140.0857  143.4322  160.9174 C.2     1  UNL1        0.3227
     22 C         141.2792  142.8906  160.1880 C.ar    1  UNL1        0.0854
     23 C         141.1155  142.2913  158.8227 C.ar    1  UNL1        0.0107
     24 C         142.3091  141.7496  158.0934 C.ar    1  UNL1        0.0403
     25 C         143.6664  141.8073  158.7293 C.ar    1  UNL1        0.1724
     26 C         143.8301  142.4066  160.0946 C.ar    1  UNL1        0.1726
     27 C         142.6366  142.9482  160.8240 C.ar    1  UNL1        0.0474
     28 O         144.8599  141.2657  157.9999 O.3     1  UNL1       -0.4684
     29 C         145.7625  142.1953  157.2441 C.3     1  UNL1        0.2526
     30 O         145.1874  142.4643  160.7305 O.3     1  UNL1       -0.4684
     31 C         145.3511  142.1209  162.1814 C.3     1  UNL1        0.2526
     32 C         140.0639  145.7667  158.3059 C.3     1  UNL1        0.0625
     33 C         140.4239  145.7343  159.7617 C.3     1  UNL1        0.2633
@<TRIPOS>BOND
     1    32    33    1
     2    33    20    1
     3    20    21    2
     4    21    22    1
     5    22    23   ar
     6    23    24   ar
     7    24    25   ar
     8    25    28    1
     9    28    29    1
    10    25    26   ar
    11    26    30    1
    12    30    31    1
    13    26    27   ar
    14    21     1    1
    15     1     2    1
    16     2     3    1
    17     3     4    1
    18     4     5    1
    19     5     6   ar
    20     6     7   ar
    21     7    11    1
    22    11    12    2
    23    12    13    1
    24    13    14   am
    25    14    15    2
    26    14    16    1
    27    16    17    1
    28    17    18    1
    29     7     8   ar
    30     8     9   ar
    31     9    10   ar
    32    27    22   ar
    33    10     1    1
    34    10     5   ar
    35    17    11    1
    36    13    19    1
@<TRIPOS>MOLECULE
*****
 33 36 0 0 0
SMALL
GASTEIGER

@<TRIPOS>ATOM
      1 N         140.9042  143.4314  162.0117 N.pl3   1  UNL1       -0.1707
      2 C         140.0899  144.5839  161.5033 C.3     1  UNL1        0.2077
      3 C         139.2327  145.3716  162.4492 C.3     1  UNL1        0.0560
      4 C         139.1899  145.0068  163.9035 C.3     1  UNL1        0.0341
      5 C         140.0042  143.8543  164.4119 C.ar    1  UNL1        0.0150
      6 C         139.9614  143.4895  165.8663 C.ar    1  UNL1        0.0004
      7 C         140.7757  142.3370  166.3747 C.ar    1  UNL1        0.0158
      8 C         141.6329  141.5492  165.4288 C.ar    1  UNL1        0.0047
      9 C         141.6758  141.9140  163.9744 C.ar    1  UNL1        0.0400
     10 C         140.8614  143.0666  163.4660 C.ar    1  UNL1        0.1347
     11 C         140.7329  141.9721  167.8290 C.2     1  UNL1        0.0863
     12 N         141.4373  142.8294  168.8384 N.2     1  UNL1       -0.1821
     13 N         141.3945  142.4646  170.2927 N.am    1  UNL1       -0.1976
     14 C         140.6473  141.2425  170.7377 C.2     1  UNL1        0.2921
     15 O         140.6044  140.8777  172.1920 O.2     1  UNL1       -0.2612
     16 S         139.9428  140.3851  169.7283 S.3     1  UNL1       -0.0505
     17 C         139.9856  140.7500  168.2740 C.3     1  UNL1        0.0977
     18 C         139.2812  139.8927  167.2646 C.3     1  UNL1        0.0186
     19 H         141.8569  143.0273  170.9552 H       1  UNL1        0.1781
     20 N         143.1964  143.0274  160.8573 N.2     1  UNL1       -0.0650
     21 C         141.7614  142.6437  161.0658 C.2     1  UNL1        0.3227
     22 C         141.1836  141.4722  160.3284 C.ar    1  UNL1        0.0854
     23 C         140.8055  141.6081  158.8832 C.ar    1  UNL1        0.0107
     24 C         140.2276  140.4365  158.1458 C.ar    1  UNL1        0.0403
     25 C         140.0280  139.1292  158.8536 C.ar    1  UNL1        0.1724
     26 C         140.4062  138.9933  160.2988 C.ar    1  UNL1        0.1726
     27 C         140.9840  140.1648  161.0362 C.ar    1  UNL1        0.0474
     28 O         139.4502  137.9578  158.1162 O.3     1  UNL1       -0.4684
     29 C         139.8999  137.6561  156.7174 C.3     1  UNL1        0.2526
     30 O         140.2065  137.6860  161.0066 O.3     1  UNL1       -0.4684
     31 C         140.1608  137.6439  162.5053 C.3     1  UNL1        0.2526
     32 C         144.2645  142.7260  158.5082 C.3     1  UNL1        0.0625
     33 C         144.0536  142.2398  159.9115 C.3     1  UNL1        0.2633
@<TRIPOS>BOND
     1    32    33    1
     2    33    20    1
     3    20    21    2
     4    21    22    1
     5    22    23   ar
     6    23    24   ar
     7    24    25   ar
     8    25    28    1
     9    28    29    1
    10    25    26   ar
    11    26    30    1
    12    30    31    1
    13    26    27   ar
    14    21     1    1
    15     1     2    1
    16     2     3    1
    17     3     4    1
    18     4     5    1
    19     5     6   ar
    20     6     7   ar
    21     7    11    1
    22    11    12    2
    23    12    13    1
    24    13    14   am
    25    14    15    2
    26    14    16    1
    27    16    17    1
    28    17    18    1
    29     7     8   ar
    30     8     9   ar
    31     9    10   ar
    32    27    22   ar
    33    10     1    1
    34    10     5   ar
    35    17    11    1
    36    13    19    1
@<TRIPOS>MOLECULE
*****
 33 36 0 0 0
SMALL
GASTEIGER

@<TRIPOS>ATOM
      1 N         141.1859  138.8337  163.9850 N.pl3   1  UNL1       -0.1707
      2 C         140.4018  137.9774  164.9347 C.3     1  UNL1        0.2077
      3 C         139.0770  137.4124  164.5159 C.3     1  UNL1        0.0560
      4 C         138.5362  137.7037  163.1475 C.3     1  UNL1        0.0341
      5 C         139.3202  138.5599  162.1978 C.ar    1  UNL1        0.0150
      6 C         138.7794  138.8512  160.8293 C.ar    1  UNL1        0.0004
      7 C         139.5635  139.7075  159.8796 C.ar    1  UNL1        0.0158
      8 C         140.8885  140.2725  160.2984 C.ar    1  UNL1        0.0047
      9 C         141.4293  139.9813  161.6669 C.ar    1  UNL1        0.0400
     10 C         140.6451  139.1249  162.6166 C.ar    1  UNL1        0.1347
     11 C         139.0227  139.9988  158.5112 C.2     1  UNL1        0.0863
     12 N         139.0554  138.9387  157.4505 N.2     1  UNL1       -0.1821
     13 N         138.5146  139.2299  156.0821 N.am    1  UNL1       -0.1976
     14 C         137.9411  140.5814  155.7743 C.2     1  UNL1        0.2921
     15 O         137.4003  140.8726  154.4058 O.2     1  UNL1       -0.2612
     16 S         137.9084  141.6416  156.8349 S.3     1  UNL1       -0.0505
     17 C         138.4492  141.3503  158.2034 C.3     1  UNL1        0.0977
     18 C         138.4166  142.4104  159.2640 C.3     1  UNL1        0.0186
     19 H         138.5360  138.5341  155.3859 H       1  UNL1        0.1781
     20 N         143.7410  139.1020  163.5984 N.2     1  UNL1       -0.0650
     21 C         142.5109  139.3987  164.4038 C.2     1  UNL1        0.3227
     22 C         142.6056  140.2604  165.6279 C.ar    1  UNL1        0.0854
     23 C         142.5486  141.7538  165.5001 C.ar    1  UNL1        0.0107
     24 C         142.6434  142.6155  166.7243 C.ar    1  UNL1        0.0403
     25 C         142.7952  141.9838  168.0762 C.ar    1  UNL1        0.1724
     26 C         142.8522  140.4903  168.2040 C.ar    1  UNL1        0.1726
     27 C         142.7575  139.6286  166.9799 C.ar    1  UNL1        0.0474
     28 O         142.8899  142.8454  169.3003 O.3     1  UNL1       -0.4684
     29 C         141.6436  143.2548  170.0277 C.3     1  UNL1        0.2526
     30 O         143.0040  139.8585  169.5560 O.3     1  UNL1       -0.4684
     31 C         141.7881  139.4539  170.3355 C.3     1  UNL1        0.2526
     32 C         145.5073  141.0049  163.5020 C.3     1  UNL1        0.0625
     33 C         145.0660  139.6670  164.0171 C.3     1  UNL1        0.2633
@<TRIPOS>BOND
     1    32    33    1
     2    33    20    1
     3    20    21    2
     4    21    22    1
     5    22    23   ar
     6    23    24   ar
     7    24    25   ar
     8    25    28    1
     9    28    29    1
    10    25    26   ar
    11    26    30    1
    12    30    31    1
    13    26    27   ar
    14    21     1    1
    15     1     2    1
    16     2     3    1
    17     3     4    1
    18     4     5    1
    19     5     6   ar
    20     6     7   ar
    21     7    11    1
    22    11    12    2
    23    12    13    1
    24    13    14   am
    25    14    15    2
    26    14    16    1
    27    16    17    1
    28    17    18    1
    29     7     8   ar
    30     8     9   ar
    31     9    10   ar
    32    27    22   ar
    33    10     1    1
    34    10     5   ar
    35    17    11    1
    36    13    19    1
