@<TRIPOS>MOLECULE
*****
 40 45 0 0 0
SMALL
GASTEIGER

@<TRIPOS>ATOM
      1 C         141.6083  144.6510  162.9825 C.3     1  UNL1        0.1177
      2 C         142.5663  144.6602  164.1367 C.3     1  UNL1        0.0310
      3 C         143.8543  143.8966  164.0484 C.3     1  UNL1        0.0194
      4 C         144.1844  143.1238  162.8058 C.3     1  UNL1        0.0700
      5 C         143.2264  143.1147  161.6516 C.3     1  UNL1        0.0194
      6 C         141.9383  143.8783  161.7400 C.3     1  UNL1        0.0310
      7 C         143.4665  143.5270  162.8077 C.3     1  UNL1        0.1563
      8 O         142.3018  144.2174  162.8876 O.3     1  UNL1       -0.3548
      9 C         140.3203  145.4146  163.0709 C.3     1  UNL1        0.1396
     10 O         140.1375  146.6719  162.2735 O.3     1  UNL1       -0.3817
     11 H         139.2556  147.0379  162.4445 H       1  UNL1        0.2105
     12 C         139.2149  144.9209  163.9567 C.3     1  UNL1        0.0619
     13 C         140.4720  142.3910  167.4594 C.ar    1  UNL1        0.2250
     14 C         140.1312  140.9305  167.4903 C.ar    1  UNL1        0.0593
     15 C         139.3715  140.3134  166.3537 C.ar    1  UNL1        0.0254
     16 C         138.9524  141.1567  165.1861 C.ar    1  UNL1        0.0990
     17 N         138.1927  140.5396  164.0495 N.ar    1  UNL1       -0.2400
     18 C         137.7736  141.3829  162.8820 C.ar    1  UNL1        0.1281
     19 C         138.1144  142.8434  162.8510 C.ar    1  UNL1        0.1567
     20 F         137.6954  143.6867  161.6834 F       1  UNL1       -0.2028
     21 C         138.8742  143.4605  163.9876 C.ar    1  UNL1        0.0285
     22 C         139.2932  142.6171  165.1552 C.ar    1  UNL1        0.1002
     23 N         140.0530  143.2343  166.2918 N.ar    1  UNL1       -0.2104
     24 C         140.4919  143.6574  169.7278 C.3     1  UNL1        0.2542
     25 O         141.2318  143.0081  168.5960 O.3     1  UNL1       -0.4561
     26 N         145.4725  142.3602  162.7175 N.3     1  UNL1       -0.2926
     27 H         146.2003  142.9656  163.0973 H       1  UNL1        0.1236
     28 C         145.6077  141.0352  163.4075 C.3     1  UNL1        0.1152
     29 C         144.3913  140.1965  163.6658 C.ar    1  UNL1        0.0765
     30 C         144.1747  139.5859  165.0187 C.ar    1  UNL1        0.0193
     31 C         142.9582  138.7473  165.2771 C.ar    1  UNL1        0.0411
     32 C         141.9583  138.5191  164.1825 C.ar    1  UNL1        0.1708
     33 C         142.1748  139.1296  162.8296 C.ar    1  UNL1        0.1682
     34 N         143.3913  139.9683  162.5712 N.ar    1  UNL1       -0.2304
     35 N         141.1749  138.9014  161.7351 N.am    1  UNL1       -0.2639
     36 C         139.9584  138.0627  161.9934 C.2     1  UNL1        0.2718
     37 O         138.9585  137.8345  160.8988 O.2     1  UNL1       -0.2707
     38 C         139.7418  137.4522  163.3463 C.3     1  UNL1        0.2898
     39 O         140.7418  137.6803  164.4409 O.3     1  UNL1       -0.4628
     40 H         141.3170  139.3021  160.8471 H       1  UNL1        0.1565
@<TRIPOS>BOND
     1    24    25    1
     2    25    13    1
     3    13    14   ar
     4    14    15   ar
     5    15    16   ar
     6    16    17   ar
     7    17    18   ar
     8    18    19   ar
     9    19    20    1
    10    19    21   ar
    11    21    12    1
    12    12     9    1
    13     9    10    1
    14     9     1    1
    15     1     2    1
    16     2     3    1
    17     3     4    1
    18     4    26    1
    19    26    28    1
    20    28    29    1
    21    29    30   ar
    22    30    31   ar
    23    31    32   ar
    24    32    33   ar
    25    33    34   ar
    26    33    35    1
    27    35    36   am
    28    36    37    2
    29    36    38    1
    30    38    39    1
    31     4     5    1
    32     5     6    1
    33     4     7    1
    34     7     8    1
    35    21    22   ar
    36    22    23   ar
    37    23    13   ar
    38    22    16   ar
    39     6     1    1
    40     8     1    1
    41    34    29   ar
    42    39    32    1
    43    10    11    1
    44    26    27    1
    45    35    40    1
@<TRIPOS>MOLECULE
*****
 40 45 0 0 0
SMALL
GASTEIGER

@<TRIPOS>ATOM
      1 C         144.0008  142.6233  163.2137 C.3     1  UNL1        0.1177
      2 C         143.4013  143.3037  164.4085 C.3     1  UNL1        0.0310
      3 C         142.4034  144.4077  164.2207 C.3     1  UNL1        0.0194
      4 C         142.0048  144.8312  162.8380 C.3     1  UNL1        0.0700
      5 C         142.6043  144.1508  161.6431 C.3     1  UNL1        0.0194
      6 C         143.6023  143.0468  161.8310 C.3     1  UNL1        0.0310
      7 C         142.5555  144.2214  162.8909 C.3     1  UNL1        0.1563
      8 O         143.4579  143.2232  163.0607 O.3     1  UNL1       -0.3548
      9 C         144.9987  141.5193  163.4015 C.3     1  UNL1        0.1396
     10 O         146.4626  141.7929  163.2216 O.3     1  UNL1       -0.3817
     11 H         146.9654  140.9784  163.3784 H       1  UNL1        0.2105
     12 C         144.5329  140.1417  163.7692 C.3     1  UNL1        0.0619
     13 C         140.8341  139.8083  166.3105 C.ar    1  UNL1        0.2250
     14 C         139.5666  139.2632  165.7221 C.ar    1  UNL1        0.0593
     15 C         139.5319  138.8293  164.2867 C.ar    1  UNL1        0.0254
     16 C         140.7648  138.9404  163.4396 C.ar    1  UNL1        0.0990
     17 N         140.7302  138.5065  162.0042 N.ar    1  UNL1       -0.2400
     18 C         141.9630  138.6176  161.1571 C.ar    1  UNL1        0.1281
     19 C         143.2307  139.1627  161.7454 C.ar    1  UNL1        0.1567
     20 F         144.4636  139.2738  160.8983 F       1  UNL1       -0.2028
     21 C         143.2653  139.5966  163.1809 C.ar    1  UNL1        0.0285
     22 C         142.0324  139.4855  164.0280 C.ar    1  UNL1        0.1002
     23 N         142.0670  139.9194  165.4634 N.ar    1  UNL1       -0.2104
     24 C         139.6352  140.1335  168.5923 C.3     1  UNL1        0.2542
     25 O         140.8688  140.2422  167.7459 O.3     1  UNL1       -0.4561
     26 N         141.0069  145.9352  162.6502 N.3     1  UNL1       -0.2926
     27 H         141.1401  146.2948  161.7050 H       1  UNL1        0.1236
     28 C         139.5413  145.6557  162.8046 C.3     1  UNL1        0.1152
     29 C         139.0091  144.2777  162.5444 C.ar    1  UNL1        0.0765
     30 C         138.4604  143.4595  163.6756 C.ar    1  UNL1        0.0193
     31 C         137.9282  142.0815  163.4154 C.ar    1  UNL1        0.0411
     32 C         137.9446  141.5215  162.0239 C.ar    1  UNL1        0.1708
     33 C         138.4933  142.3396  160.8927 C.ar    1  UNL1        0.1682
     34 N         139.0255  143.7177  161.1529 N.ar    1  UNL1       -0.2304
     35 N         138.5097  141.7797  159.5012 N.am    1  UNL1       -0.2639
     36 C         137.9775  140.4017  159.2409 C.2     1  UNL1        0.2718
     37 O         137.9939  139.8417  157.8495 O.2     1  UNL1       -0.2707
     38 C         137.4288  139.5835  160.3722 C.3     1  UNL1        0.2898
     39 O         137.4124  140.1434  161.7637 O.3     1  UNL1       -0.4628
     40 H         138.8698  142.3166  158.7587 H       1  UNL1        0.1565
@<TRIPOS>BOND
     1    24    25    1
     2    25    13    1
     3    13    14   ar
     4    14    15   ar
     5    15    16   ar
     6    16    17   ar
     7    17    18   ar
     8    18    19   ar
     9    19    20    1
    10    19    21   ar
    11    21    12    1
    12    12     9    1
    13     9    10    1
    14     9     1    1
    15     1     2    1
    16     2     3    1
    17     3     4    1
    18     4    26    1
    19    26    28    1
    20    28    29    1
    21    29    30   ar
    22    30    31   ar
    23    31    32   ar
    24    32    33   ar
    25    33    34   ar
    26    33    35    1
    27    35    36   am
    28    36    37    2
    29    36    38    1
    30    38    39    1
    31     4     5    1
    32     5     6    1
    33     4     7    1
    34     7     8    1
    35    21    22   ar
    36    22    23   ar
    37    23    13   ar
    38    22    16   ar
    39     6     1    1
    40     8     1    1
    41    34    29   ar
    42    39    32    1
    43    10    11    1
    44    26    27    1
    45    35    40    1
@<TRIPOS>MOLECULE
*****
 40 45 0 0 0
SMALL
GASTEIGER

@<TRIPOS>ATOM
      1 C         142.1509  138.3736  163.8701 C.3     1  UNL1        0.1177
      2 C         142.3231  138.8816  162.4692 C.3     1  UNL1        0.0310
      3 C         143.4910  139.7586  162.1277 C.3     1  UNL1        0.0194
      4 C         144.4869  140.1276  163.1870 C.3     1  UNL1        0.0700
      5 C         144.3148  139.6197  164.5878 C.3     1  UNL1        0.0194
      6 C         143.1468  138.7426  164.9294 C.3     1  UNL1        0.0310
      7 C         143.8630  139.6444  163.4219 C.3     1  UNL1        0.1563
      8 O         142.8069  138.8514  163.7308 O.3     1  UNL1       -0.3548
      9 C         140.9830  137.4966  164.2116 C.3     1  UNL1        0.1396
     10 O         141.0581  136.0186  163.9673 O.3     1  UNL1       -0.3817
     11 H         140.2256  135.6028  164.2411 H       1  UNL1        0.2105
     12 C         139.7398  138.0977  164.7976 C.3     1  UNL1        0.0619
     13 C         140.3307  142.2069  166.5340 C.ar    1  UNL1        0.2250
     14 C         139.6926  143.3964  165.8799 C.ar    1  UNL1        0.0593
     15 C         138.8575  143.2161  164.6470 C.ar    1  UNL1        0.0254
     16 C         138.6605  141.8464  164.0682 C.ar    1  UNL1        0.0990
     17 N         137.8253  141.6662  162.8353 N.ar    1  UNL1       -0.2400
     18 C         137.6283  140.2965  162.2564 C.ar    1  UNL1        0.1281
     19 C         138.2665  139.1069  162.9105 C.ar    1  UNL1        0.1567
     20 F         138.0695  137.7372  162.3317 F       1  UNL1       -0.2028
     21 C         139.1016  139.2872  164.1435 C.ar    1  UNL1        0.0285
     22 C         139.2986  140.6570  164.7223 C.ar    1  UNL1        0.1002
     23 N         140.1337  140.8372  165.9552 N.ar    1  UNL1       -0.2104
     24 C         142.6289  142.0578  167.7365 C.3     1  UNL1        0.2542
     25 O         141.1658  142.3871  167.7669 O.3     1  UNL1       -0.4561
     26 N         145.6549  141.0046  162.8454 N.3     1  UNL1       -0.2926
     27 H         145.7630  140.9695  161.8318 H       1  UNL1        0.1236
     28 C         145.6418  142.4545  163.2296 C.3     1  UNL1        0.1152
     29 C         144.3817  143.2561  163.0894 C.ar    1  UNL1        0.0765
     30 C         143.6902  143.7860  164.3106 C.ar    1  UNL1        0.0193
     31 C         142.4301  144.5876  164.1704 C.ar    1  UNL1        0.0411
     32 C         141.8616  144.8594  162.8092 C.ar    1  UNL1        0.1708
     33 C         142.5530  144.3295  161.5881 C.ar    1  UNL1        0.1682
     34 N         143.8131  143.5279  161.7282 N.ar    1  UNL1       -0.2304
     35 N         141.9845  144.6013  160.2269 N.am    1  UNL1       -0.2639
     36 C         140.7244  145.4029  160.0868 C.2     1  UNL1        0.2718
     37 O         140.1558  145.6747  158.7256 O.2     1  UNL1       -0.2707
     38 C         140.0329  145.9328  161.3079 C.3     1  UNL1        0.2898
     39 O         140.6014  145.6610  162.6691 O.3     1  UNL1       -0.4628
     40 H         142.4383  144.2535  159.4255 H       1  UNL1        0.1565
@<TRIPOS>BOND
     1    24    25    1
     2    25    13    1
     3    13    14   ar
     4    14    15   ar
     5    15    16   ar
     6    16    17   ar
     7    17    18   ar
     8    18    19   ar
     9    19    20    1
    10    19    21   ar
    11    21    12    1
    12    12     9    1
    13     9    10    1
    14     9     1    1
    15     1     2    1
    16     2     3    1
    17     3     4    1
    18     4    26    1
    19    26    28    1
    20    28    29    1
    21    29    30   ar
    22    30    31   ar
    23    31    32   ar
    24    32    33   ar
    25    33    34   ar
    26    33    35    1
    27    35    36   am
    28    36    37    2
    29    36    38    1
    30    38    39    1
    31     4     5    1
    32     5     6    1
    33     4     7    1
    34     7     8    1
    35    21    22   ar
    36    22    23   ar
    37    23    13   ar
    38    22    16   ar
    39     6     1    1
    40     8     1    1
    41    34    29   ar
    42    39    32    1
    43    10    11    1
    44    26    27    1
    45    35    40    1
@<TRIPOS>MOLECULE
*****
 40 45 0 0 0
SMALL
GASTEIGER

@<TRIPOS>ATOM
      1 C         143.3425  139.0087  161.8611 C.3     1  UNL1        0.1177
      2 C         143.7263  138.7808  163.2931 C.3     1  UNL1        0.0310
      3 C         144.5870  139.7805  164.0071 C.3     1  UNL1        0.0194
      4 C         145.0638  141.0081  163.2891 C.3     1  UNL1        0.0700
      5 C         144.6800  141.2361  161.8571 C.3     1  UNL1        0.0194
      6 C         143.8193  140.2363  161.1430 C.3     1  UNL1        0.0310
      7 C         144.5941  140.4887  162.8562 C.3     1  UNL1        0.1563
      8 O         143.8159  139.5847  162.2105 O.3     1  UNL1       -0.3548
      9 C         142.4818  138.0090  161.1470 C.3     1  UNL1        0.1396
     10 O         143.0999  136.7832  160.5427 O.3     1  UNL1       -0.3817
     11 H         142.4097  136.2466  160.1225 H       1  UNL1        0.2105
     12 C         141.0030  138.2352  161.0373 C.3     1  UNL1        0.0619
     13 C         138.2629  141.7947  161.3053 C.ar    1  UNL1        0.2250
     14 C         137.4449  142.0200  162.5422 C.ar    1  UNL1        0.0593
     15 C         137.5401  141.0587  163.6898 C.ar    1  UNL1        0.0254
     16 C         138.4534  139.8722  163.6005 C.ar    1  UNL1        0.0990
     17 N         138.5487  138.9110  164.7480 N.ar    1  UNL1       -0.2400
     18 C         139.4620  137.7245  164.6587 C.ar    1  UNL1        0.1281
     19 C         140.2802  137.4992  163.4218 C.ar    1  UNL1        0.1567
     20 F         141.1935  136.3127  163.3325 F       1  UNL1       -0.2028
     21 C         140.1849  138.4604  162.2742 C.ar    1  UNL1        0.0285
     22 C         139.2715  139.6470  162.3636 C.ar    1  UNL1        0.1002
     23 N         139.1763  140.6082  161.2160 N.ar    1  UNL1       -0.2104
     24 C         139.4137  143.2244  159.4663 C.3     1  UNL1        0.2542
     25 O         138.1677  142.7559  160.1577 O.3     1  UNL1       -0.4561
     26 N         145.9245  142.0078  164.0031 N.3     1  UNL1       -0.2926
     27 H         146.5490  142.4109  163.3046 H       1  UNL1        0.1236
     28 C         145.2926  143.1559  164.7330 C.3     1  UNL1        0.1152
     29 C         143.8185  143.4037  164.6084 C.ar    1  UNL1        0.0765
     30 C         142.8629  142.7320  165.5495 C.ar    1  UNL1        0.0193
     31 C         141.3888  142.9798  165.4250 C.ar    1  UNL1        0.0411
     32 C         140.8702  143.8992  164.3593 C.ar    1  UNL1        0.1708
     33 C         141.8258  144.5709  163.4182 C.ar    1  UNL1        0.1682
     34 N         143.3000  144.3231  163.5427 N.ar    1  UNL1       -0.2304
     35 N         141.3072  145.4904  162.3525 N.am    1  UNL1       -0.2639
     36 C         139.8331  145.7382  162.2279 C.2     1  UNL1        0.2718
     37 O         139.3145  146.6577  161.1622 O.2     1  UNL1       -0.2707
     38 C         138.8775  145.0665  163.1691 C.3     1  UNL1        0.2898
     39 O         139.3960  144.1470  164.2347 O.3     1  UNL1       -0.4628
     40 H         141.9344  145.9312  161.7348 H       1  UNL1        0.1565
@<TRIPOS>BOND
     1    24    25    1
     2    25    13    1
     3    13    14   ar
     4    14    15   ar
     5    15    16   ar
     6    16    17   ar
     7    17    18   ar
     8    18    19   ar
     9    19    20    1
    10    19    21   ar
    11    21    12    1
    12    12     9    1
    13     9    10    1
    14     9     1    1
    15     1     2    1
    16     2     3    1
    17     3     4    1
    18     4    26    1
    19    26    28    1
    20    28    29    1
    21    29    30   ar
    22    30    31   ar
    23    31    32   ar
    24    32    33   ar
    25    33    34   ar
    26    33    35    1
    27    35    36   am
    28    36    37    2
    29    36    38    1
    30    38    39    1
    31     4     5    1
    32     5     6    1
    33     4     7    1
    34     7     8    1
    35    21    22   ar
    36    22    23   ar
    37    23    13   ar
    38    22    16   ar
    39     6     1    1
    40     8     1    1
    41    34    29   ar
    42    39    32    1
    43    10    11    1
    44    26    27    1
    45    35    40    1
@<TRIPOS>MOLECULE
*****
 40 45 0 0 0
SMALL
GASTEIGER

@<TRIPOS>ATOM
      1 C         140.7602  144.7883  162.1121 C.3     1  UNL1        0.1177
      2 C         141.7130  145.3054  163.1489 C.3     1  UNL1        0.0310
      3 C         143.1278  144.8083  163.1818 C.3     1  UNL1        0.0194
      4 C         143.5899  143.7940  162.1779 C.3     1  UNL1        0.0700
      5 C         142.6372  143.2769  161.1411 C.3     1  UNL1        0.0194
      6 C         141.2223  143.7741  161.1082 C.3     1  UNL1        0.0310
      7 C         142.8052  144.0366  162.1202 C.3     1  UNL1        0.1563
      8 O         141.5259  144.4862  162.0904 O.3     1  UNL1       -0.3548
      9 C         139.3454  145.2855  162.0791 C.3     1  UNL1        0.1396
     10 O         139.0159  146.5633  161.3660 O.3     1  UNL1       -0.3817
     11 H         138.0648  146.7390  161.4402 H       1  UNL1        0.2105
     12 C         138.2601  144.5048  162.7594 C.3     1  UNL1        0.0619
     13 C         137.8179  140.2127  161.4818 C.ar    1  UNL1        0.2250
     14 C         138.1719  139.1072  162.4317 C.ar    1  UNL1        0.0593
     15 C         138.6733  139.4323  163.8075 C.ar    1  UNL1        0.0254
     16 C         138.8207  140.8630  164.2334 C.ar    1  UNL1        0.0990
     17 N         139.3221  141.1881  165.6092 N.ar    1  UNL1       -0.2400
     18 C         139.4695  142.6188  166.0351 C.ar    1  UNL1        0.1281
     19 C         139.1155  143.7244  165.0851 C.ar    1  UNL1        0.1567
     20 F         139.2629  145.1551  165.5110 F       1  UNL1       -0.2028
     21 C         138.6141  143.3993  163.7093 C.ar    1  UNL1        0.0285
     22 C         138.4667  141.9685  163.2835 C.ar    1  UNL1        0.1002
     23 N         137.9653  141.6434  161.9077 N.ar    1  UNL1       -0.2104
     24 C         137.9906  140.4778  158.9031 C.3     1  UNL1        0.2542
     25 O         137.3164  139.8876  160.1060 O.3     1  UNL1       -0.4561
     26 N         145.0047  143.2968  162.2108 N.3     1  UNL1       -0.2926
     27 H         145.5295  143.9412  162.8022 H       1  UNL1        0.1236
     28 C         145.3021  141.9131  162.7076 C.3     1  UNL1        0.1152
     29 C         144.4544  141.3049  163.7853 C.ar    1  UNL1        0.0765
     30 C         143.8847  139.9290  163.6047 C.ar    1  UNL1        0.0193
     31 C         143.0371  139.3208  164.6824 C.ar    1  UNL1        0.0411
     32 C         142.7591  140.0884  165.9408 C.ar    1  UNL1        0.1708
     33 C         143.3288  141.4642  166.1215 C.ar    1  UNL1        0.1682
     34 N         144.1764  142.0724  165.0437 N.ar    1  UNL1       -0.2304
     35 N         143.0508  142.2317  167.3799 N.am    1  UNL1       -0.2639
     36 C         142.2031  141.6235  168.4576 C.2     1  UNL1        0.2718
     37 O         141.9251  142.3911  169.7160 O.2     1  UNL1       -0.2707
     38 C         141.6334  140.2477  168.2770 C.3     1  UNL1        0.2898
     39 O         141.9114  139.4801  167.0186 O.3     1  UNL1       -0.4628
     40 H         143.4247  143.1347  167.4985 H       1  UNL1        0.1565
@<TRIPOS>BOND
     1    24    25    1
     2    25    13    1
     3    13    14   ar
     4    14    15   ar
     5    15    16   ar
     6    16    17   ar
     7    17    18   ar
     8    18    19   ar
     9    19    20    1
    10    19    21   ar
    11    21    12    1
    12    12     9    1
    13     9    10    1
    14     9     1    1
    15     1     2    1
    16     2     3    1
    17     3     4    1
    18     4    26    1
    19    26    28    1
    20    28    29    1
    21    29    30   ar
    22    30    31   ar
    23    31    32   ar
    24    32    33   ar
    25    33    34   ar
    26    33    35    1
    27    35    36   am
    28    36    37    2
    29    36    38    1
    30    38    39    1
    31     4     5    1
    32     5     6    1
    33     4     7    1
    34     7     8    1
    35    21    22   ar
    36    22    23   ar
    37    23    13   ar
    38    22    16   ar
    39     6     1    1
    40     8     1    1
    41    34    29   ar
    42    39    32    1
    43    10    11    1
    44    26    27    1
    45    35    40    1
@<TRIPOS>MOLECULE
*****
 40 45 0 0 0
SMALL
GASTEIGER

@<TRIPOS>ATOM
      1 C         141.9969  138.5112  164.2851 C.3     1  UNL1        0.1177
      2 C         143.1960  138.7466  165.1549 C.3     1  UNL1        0.0310
      3 C         144.3598  139.5345  164.6308 C.3     1  UNL1        0.0194
      4 C         144.3244  140.0871  163.2367 C.3     1  UNL1        0.0700
      5 C         143.1253  139.8517  162.3668 C.3     1  UNL1        0.0194
      6 C         141.9615  139.0638  162.8910 C.3     1  UNL1        0.0310
      7 C         143.6629  139.6616  163.4799 C.3     1  UNL1        0.1563
      8 O         142.6105  138.9491  163.9539 O.3     1  UNL1       -0.3548
      9 C         140.8331  137.7233  164.8092 C.3     1  UNL1        0.1396
     10 O         140.8075  136.2314  164.6559 O.3     1  UNL1       -0.3817
     11 H         139.9917  135.8802  165.0458 H       1  UNL1        0.2105
     12 C         139.6950  138.4273  165.4868 C.3     1  UNL1        0.0619
     13 C         137.8275  141.3010  162.5705 C.ar    1  UNL1        0.2250
     14 C         137.9018  142.7780  162.8212 C.ar    1  UNL1        0.0593
     15 C         138.5986  143.2971  164.0439 C.ar    1  UNL1        0.0254
     16 C         139.2211  142.3393  165.0159 C.ar    1  UNL1        0.0990
     17 N         139.9179  142.8584  166.2386 N.ar    1  UNL1       -0.2400
     18 C         140.5403  141.9006  167.2107 C.ar    1  UNL1        0.1281
     19 C         140.4661  140.4234  166.9601 C.ar    1  UNL1        0.1567
     20 F         141.0885  139.4656  167.9322 F       1  UNL1       -0.2028
     21 C         139.7693  139.9043  165.7374 C.ar    1  UNL1        0.0285
     22 C         139.1468  140.8623  164.7653 C.ar    1  UNL1        0.1002
     23 N         138.4500  140.3431  163.5426 N.ar    1  UNL1       -0.2104
     24 C         137.7973  139.7514  160.4854 C.3     1  UNL1        0.2542
     25 O         137.1307  140.7818  161.3479 O.3     1  UNL1       -0.4561
     26 N         145.4882  140.8750  162.7125 N.3     1  UNL1       -0.2926
     27 H         145.4907  140.7578  161.6993 H       1  UNL1        0.1236
     28 C         145.5768  142.3487  162.9781 C.3     1  UNL1        0.1152
     29 C         144.3389  143.1946  162.9333 C.ar    1  UNL1        0.0765
     30 C         143.7648  143.7517  164.2022 C.ar    1  UNL1        0.0193
     31 C         142.5269  144.5976  164.1574 C.ar    1  UNL1        0.0411
     32 C         141.8631  144.8864  162.8437 C.ar    1  UNL1        0.1708
     33 C         142.4371  144.3294  161.5748 C.ar    1  UNL1        0.1682
     34 N         143.6750  143.4834  161.6196 N.ar    1  UNL1       -0.2304
     35 N         141.7732  144.6183  160.2611 N.am    1  UNL1       -0.2639
     36 C         140.5353  145.4642  160.2163 C.2     1  UNL1        0.2718
     37 O         139.8714  145.7530  158.9026 O.2     1  UNL1       -0.2707
     38 C         139.9612  146.0212  161.4853 C.3     1  UNL1        0.2898
     39 O         140.6251  145.7324  162.7990 O.3     1  UNL1       -0.4628
     40 H         142.1500  144.2527  159.4283 H       1  UNL1        0.1565
@<TRIPOS>BOND
     1    24    25    1
     2    25    13    1
     3    13    14   ar
     4    14    15   ar
     5    15    16   ar
     6    16    17   ar
     7    17    18   ar
     8    18    19   ar
     9    19    20    1
    10    19    21   ar
    11    21    12    1
    12    12     9    1
    13     9    10    1
    14     9     1    1
    15     1     2    1
    16     2     3    1
    17     3     4    1
    18     4    26    1
    19    26    28    1
    20    28    29    1
    21    29    30   ar
    22    30    31   ar
    23    31    32   ar
    24    32    33   ar
    25    33    34   ar
    26    33    35    1
    27    35    36   am
    28    36    37    2
    29    36    38    1
    30    38    39    1
    31     4     5    1
    32     5     6    1
    33     4     7    1
    34     7     8    1
    35    21    22   ar
    36    22    23   ar
    37    23    13   ar
    38    22    16   ar
    39     6     1    1
    40     8     1    1
    41    34    29   ar
    42    39    32    1
    43    10    11    1
    44    26    27    1
    45    35    40    1
@<TRIPOS>MOLECULE
*****
 40 45 0 0 0
SMALL
GASTEIGER

@<TRIPOS>ATOM
      1 C         139.5971  143.6578  163.3372 C.3     1  UNL1        0.1177
      2 C         139.9936  143.3095  164.7413 C.3     1  UNL1        0.0310
      3 C         141.4327  143.3915  165.1565 C.3     1  UNL1        0.0194
      4 C         142.4753  143.8217  164.1675 C.3     1  UNL1        0.0700
      5 C         142.0788  144.1700  162.7634 C.3     1  UNL1        0.0194
      6 C         140.6396  144.0880  162.3482 C.3     1  UNL1        0.0310
      7 C         141.6994  143.7919  163.8936 C.3     1  UNL1        0.1563
      8 O         140.3982  143.7178  163.5181 O.3     1  UNL1       -0.3548
      9 C         138.1581  143.5758  162.9220 C.3     1  UNL1        0.1396
     10 O         137.4078  144.8250  162.5663 O.3     1  UNL1       -0.3817
     11 H         136.4971  144.5968  162.3225 H       1  UNL1        0.2105
     12 C         137.4693  142.2446  162.8626 C.3     1  UNL1        0.0619
     13 C         138.6567  138.8747  165.5983 C.ar    1  UNL1        0.2250
     14 C         139.3786  137.6807  165.0478 C.ar    1  UNL1        0.0593
     15 C         139.7047  137.6099  163.5854 C.ar    1  UNL1        0.0254
     16 C         139.3089  138.7331  162.6735 C.ar    1  UNL1        0.0990
     17 N         139.6350  138.6623  161.2110 N.ar    1  UNL1       -0.2400
     18 C         139.2392  139.7856  160.2991 C.ar    1  UNL1        0.1281
     19 C         138.5172  140.9797  160.8496 C.ar    1  UNL1        0.1567
     20 F         138.1215  142.1030  159.9377 F       1  UNL1       -0.2028
     21 C         138.1912  141.0505  162.3121 C.ar    1  UNL1        0.0285
     22 C         138.5870  139.9272  163.2240 C.ar    1  UNL1        0.1002
     23 N         138.2609  139.9980  164.6864 N.ar    1  UNL1       -0.2104
     24 C         139.1641  139.7939  167.9748 C.3     1  UNL1        0.2542
     25 O         138.3306  138.9455  167.0607 O.3     1  UNL1       -0.4561
     26 N         143.9143  143.9037  164.5827 N.3     1  UNL1       -0.2926
     27 H         143.9292  144.3239  165.5120 H       1  UNL1        0.1236
     28 C         144.7455  142.6573  164.6577 C.3     1  UNL1        0.1152
     29 C         144.2903  141.4092  163.9612 C.ar    1  UNL1        0.0765
     30 C         143.8266  140.2294  164.7630 C.ar    1  UNL1        0.0193
     31 C         143.3714  138.9813  164.0665 C.ar    1  UNL1        0.0411
     32 C         143.3799  138.9131  162.5681 C.ar    1  UNL1        0.1708
     33 C         143.8435  140.0929  161.7662 C.ar    1  UNL1        0.1682
     34 N         144.2987  141.3410  162.4627 N.ar    1  UNL1       -0.2304
     35 N         143.8519  140.0247  160.2678 N.am    1  UNL1       -0.2639
     36 C         143.3967  138.7767  159.5712 C.2     1  UNL1        0.2718
     37 O         143.4051  138.7085  158.0728 O.2     1  UNL1       -0.2707
     38 C         142.9331  137.5968  160.3731 C.3     1  UNL1        0.2898
     39 O         142.9246  137.6650  161.8716 O.3     1  UNL1       -0.4628
     40 H         144.1562  140.7991  159.7415 H       1  UNL1        0.1565
@<TRIPOS>BOND
     1    24    25    1
     2    25    13    1
     3    13    14   ar
     4    14    15   ar
     5    15    16   ar
     6    16    17   ar
     7    17    18   ar
     8    18    19   ar
     9    19    20    1
    10    19    21   ar
    11    21    12    1
    12    12     9    1
    13     9    10    1
    14     9     1    1
    15     1     2    1
    16     2     3    1
    17     3     4    1
    18     4    26    1
    19    26    28    1
    20    28    29    1
    21    29    30   ar
    22    30    31   ar
    23    31    32   ar
    24    32    33   ar
    25    33    34   ar
    26    33    35    1
    27    35    36   am
    28    36    37    2
    29    36    38    1
    30    38    39    1
    31     4     5    1
    32     5     6    1
    33     4     7    1
    34     7     8    1
    35    21    22   ar
    36    22    23   ar
    37    23    13   ar
    38    22    16   ar
    39     6     1    1
    40     8     1    1
    41    34    29   ar
    42    39    32    1
    43    10    11    1
    44    26    27    1
    45    35    40    1
@<TRIPOS>MOLECULE
*****
 40 45 0 0 0
SMALL
GASTEIGER

@<TRIPOS>ATOM
      1 C         143.4355  138.8679  162.1236 C.3     1  UNL1        0.1177
      2 C         143.8492  138.7479  163.5604 C.3     1  UNL1        0.0310
      3 C         144.6347  139.8488  164.2092 C.3     1  UNL1        0.0194
      4 C         145.0065  141.0698  163.4211 C.3     1  UNL1        0.0700
      5 C         144.5928  141.1898  161.9843 C.3     1  UNL1        0.0194
      6 C         143.8073  140.0888  161.3355 C.3     1  UNL1        0.0310
      7 C         144.5753  140.4927  163.0225 C.3     1  UNL1        0.1563
      8 O         143.8651  139.4971  162.4358 O.3     1  UNL1       -0.3548
      9 C         142.6501  137.7669  161.4748 C.3     1  UNL1        0.1396
     10 O         143.2985  136.8885  160.4464 O.3     1  UNL1       -0.3817
     11 H         142.6571  136.2332  160.1300 H       1  UNL1        0.2105
     12 C         141.2160  137.5444  161.8546 C.3     1  UNL1        0.0619
     13 C         139.1163  139.6601  165.2258 C.ar    1  UNL1        0.2250
     14 C         138.0895  140.7120  164.9272 C.ar    1  UNL1        0.0593
     15 C         137.7626  141.0586  163.5049 C.ar    1  UNL1        0.0254
     16 C         138.4625  140.3534  162.3811 C.ar    1  UNL1        0.0990
     17 N         138.1355  140.7000  160.9588 N.ar    1  UNL1       -0.2400
     18 C         138.8354  139.9948  159.8351 C.ar    1  UNL1        0.1281
     19 C         139.8623  138.9429  160.1337 C.ar    1  UNL1        0.1567
     20 F         140.5621  138.2377  159.0100 F       1  UNL1       -0.2028
     21 C         140.1892  138.5962  161.5560 C.ar    1  UNL1        0.0285
     22 C         139.4893  139.3015  162.6797 C.ar    1  UNL1        0.1002
     23 N         139.8162  138.9549  164.1020 N.ar    1  UNL1       -0.2104
     24 C         139.8981  140.3838  167.5954 C.3     1  UNL1        0.2542
     25 O         139.4433  139.3135  166.6481 O.3     1  UNL1       -0.4561
     26 N         145.7920  142.1708  164.0698 N.3     1  UNL1       -0.2926
     27 H         146.2910  142.6555  163.3239 H       1  UNL1        0.1236
     28 C         145.0863  143.2226  164.8734 C.3     1  UNL1        0.1152
     29 C         143.6167  143.4533  164.6808 C.ar    1  UNL1        0.0765
     30 C         142.6265  142.7699  165.5767 C.ar    1  UNL1        0.0193
     31 C         141.1570  143.0006  165.3842 C.ar    1  UNL1        0.0411
     32 C         140.6775  143.9147  164.2958 C.ar    1  UNL1        0.1708
     33 C         141.6676  144.5981  163.4000 C.ar    1  UNL1        0.1682
     34 N         143.1373  144.3674  163.5925 N.ar    1  UNL1       -0.2304
     35 N         141.1882  145.5122  162.3116 N.am    1  UNL1       -0.2639
     36 C         139.7186  145.7429  162.1191 C.2     1  UNL1        0.2718
     37 O         139.2392  146.6571  161.0307 O.2     1  UNL1       -0.2707
     38 C         138.7284  145.0595  163.0149 C.3     1  UNL1        0.2898
     39 O         139.2079  144.1454  164.1033 O.3     1  UNL1       -0.4628
     40 H         141.8381  145.9608  161.7237 H       1  UNL1        0.1565
@<TRIPOS>BOND
     1    24    25    1
     2    25    13    1
     3    13    14   ar
     4    14    15   ar
     5    15    16   ar
     6    16    17   ar
     7    17    18   ar
     8    18    19   ar
     9    19    20    1
    10    19    21   ar
    11    21    12    1
    12    12     9    1
    13     9    10    1
    14     9     1    1
    15     1     2    1
    16     2     3    1
    17     3     4    1
    18     4    26    1
    19    26    28    1
    20    28    29    1
    21    29    30   ar
    22    30    31   ar
    23    31    32   ar
    24    32    33   ar
    25    33    34   ar
    26    33    35    1
    27    35    36   am
    28    36    37    2
    29    36    38    1
    30    38    39    1
    31     4     5    1
    32     5     6    1
    33     4     7    1
    34     7     8    1
    35    21    22   ar
    36    22    23   ar
    37    23    13   ar
    38    22    16   ar
    39     6     1    1
    40     8     1    1
    41    34    29   ar
    42    39    32    1
    43    10    11    1
    44    26    27    1
    45    35    40    1
@<TRIPOS>MOLECULE
*****
 40 45 0 0 0
SMALL
GASTEIGER

@<TRIPOS>ATOM
      1 C         143.3562  140.4578  160.6901 C.3     1  UNL1        0.1177
      2 C         141.8590  140.4453  160.7810 C.3     1  UNL1        0.0310
      3 C         141.1580  139.3033  161.4550 C.3     1  UNL1        0.0194
      4 C         141.9543  138.1736  162.0381 C.3     1  UNL1        0.0700
      5 C         143.4515  138.1861  161.9472 C.3     1  UNL1        0.0194
      6 C         144.1524  139.3283  161.2732 C.3     1  UNL1        0.0310
      7 C         142.3828  138.7777  161.6784 C.3     1  UNL1        0.1563
      8 O         143.0167  139.8104  161.0689 O.3     1  UNL1       -0.3548
      9 C         144.0571  141.5999  160.0161 C.3     1  UNL1        0.1396
     10 O         144.3023  141.5614  158.5367 O.3     1  UNL1       -0.3817
     11 H         144.7624  142.3707  158.2641 H       1  UNL1        0.2105
     12 C         144.5129  142.7805  160.8214 C.3     1  UNL1        0.0619
     13 C         140.6358  144.9017  161.6694 C.ar    1  UNL1        0.2250
     14 C         140.1672  145.0704  163.0843 C.ar    1  UNL1        0.0593
     15 C         140.9909  144.5321  164.2165 C.ar    1  UNL1        0.0254
     16 C         142.2832  143.8251  163.9338 C.ar    1  UNL1        0.0990
     17 N         143.1068  143.2868  165.0660 N.ar    1  UNL1       -0.2400
     18 C         144.3992  142.5798  164.7833 C.ar    1  UNL1        0.1281
     19 C         144.8679  142.4110  163.3684 C.ar    1  UNL1        0.1567
     20 F         146.1602  141.7039  163.0857 F       1  UNL1       -0.2028
     21 C         144.0442  142.9493  162.2362 C.ar    1  UNL1        0.0285
     22 C         142.7518  143.6563  162.5190 C.ar    1  UNL1        0.1002
     23 N         141.9282  144.1946  161.3868 N.ar    1  UNL1       -0.2104
     24 C         140.3000  145.3062  159.1251 C.3     1  UNL1        0.2542
     25 O         139.8122  145.4399  160.5373 O.3     1  UNL1       -0.4561
     26 N         141.2533  137.0316  162.7121 N.3     1  UNL1       -0.2926
     27 H         141.7039  136.1763  162.3868 H       1  UNL1        0.1236
     28 C         141.2111  136.9562  164.2096 C.3     1  UNL1        0.1152
     29 C         140.9159  138.1870  165.0145 C.ar    1  UNL1        0.0765
     30 C         139.5232  138.7430  165.0512 C.ar    1  UNL1        0.0193
     31 C         139.2280  139.9738  165.8561 C.ar    1  UNL1        0.0411
     32 C         140.3255  140.6487  166.6244 C.ar    1  UNL1        0.1708
     33 C         141.7181  140.0927  166.5878 C.ar    1  UNL1        0.1682
     34 N         142.0134  138.8618  165.7828 N.ar    1  UNL1       -0.2304
     35 N         142.8155  140.7675  167.3561 N.am    1  UNL1       -0.2639
     36 C         142.5203  141.9983  168.1610 C.2     1  UNL1        0.2718
     37 O         143.6177  142.6731  168.9293 O.2     1  UNL1       -0.2707
     38 C         141.1276  142.5543  168.1976 C.3     1  UNL1        0.2898
     39 O         140.0302  141.8795  167.4293 O.3     1  UNL1       -0.4628
     40 H         143.7296  140.4025  167.3320 H       1  UNL1        0.1565
@<TRIPOS>BOND
     1    24    25    1
     2    25    13    1
     3    13    14   ar
     4    14    15   ar
     5    15    16   ar
     6    16    17   ar
     7    17    18   ar
     8    18    19   ar
     9    19    20    1
    10    19    21   ar
    11    21    12    1
    12    12     9    1
    13     9    10    1
    14     9     1    1
    15     1     2    1
    16     2     3    1
    17     3     4    1
    18     4    26    1
    19    26    28    1
    20    28    29    1
    21    29    30   ar
    22    30    31   ar
    23    31    32   ar
    24    32    33   ar
    25    33    34   ar
    26    33    35    1
    27    35    36   am
    28    36    37    2
    29    36    38    1
    30    38    39    1
    31     4     5    1
    32     5     6    1
    33     4     7    1
    34     7     8    1
    35    21    22   ar
    36    22    23   ar
    37    23    13   ar
    38    22    16   ar
    39     6     1    1
    40     8     1    1
    41    34    29   ar
    42    39    32    1
    43    10    11    1
    44    26    27    1
    45    35    40    1
