@<TRIPOS>MOLECULE
*****
 31 33 0 0 0
SMALL
GASTEIGER

@<TRIPOS>ATOM
      1 N         145.4751  142.0941  161.9440 N.3     1  UNL1       -0.2972
      2 H         146.0236  141.6559  161.2041 H       1  UNL1        0.1233
      3 C         144.3365  140.3112  161.7859 C.3     1  UNL1        0.0161
      4 C         145.0770  141.0021  162.8923 C.3     1  UNL1        0.0461
      5 C         145.8175  141.6931  163.9988 C.3     1  UNL1        0.0161
      6 C         144.6789  139.9102  163.8406 C.3     1  UNL1        0.0408
      7 C         143.3138  139.9175  164.4623 C.ar    1  UNL1       -0.0209
      8 C         142.8586  141.1046  165.2584 C.ar    1  UNL1       -0.0042
      9 C         141.4936  141.1119  165.8801 C.ar    1  UNL1       -0.0003
     10 C         140.5836  139.9322  165.7057 C.ar    1  UNL1       -0.0000
     11 C         139.2186  139.9395  166.3274 C.ar    1  UNL1       -0.0000
     12 C         138.3087  138.7599  166.1530 C.ar    1  UNL1       -0.0000
     13 C         138.7639  137.5728  165.3569 C.ar    1  UNL1       -0.0000
     14 C         140.1290  137.5655  164.7352 C.ar    1  UNL1       -0.0000
     15 C         141.0388  138.7452  164.9096 C.ar    1  UNL1       -0.0003
     16 C         142.4039  138.7379  164.2879 C.ar    1  UNL1       -0.0042
     17 C         144.4220  142.9227  161.2698 C.3     1  UNL1        0.1020
     18 C         143.5597  143.8442  162.0805 C.3     1  UNL1        0.1697
     19 O         144.1295  145.1220  162.6216 O.3     1  UNL1       -0.3793
     20 H         145.0598  145.1984  162.3580 H       1  UNL1        0.2106
     21 C         142.1278  143.4881  162.3500 C.3     1  UNL1        0.2358
     22 O         141.6045  142.1377  161.9594 O.3     1  UNL1       -0.4721
     23 C         140.2286  141.7154  162.3822 C.ar    1  UNL1        0.1490
     24 C         139.3798  142.6398  163.2038 C.ar    1  UNL1        0.0377
     25 C         138.0040  142.2175  163.6266 C.ar    1  UNL1        0.0040
     26 C         137.4771  140.8709  163.2279 C.ar    1  UNL1        0.0123
     27 C         138.3259  139.9465  162.4064 C.ar    1  UNL1        0.0702
     28 CL        137.7990  138.5999  162.0077 Cl      1  UNL1       -0.0814
     29 C         139.7017  140.3688  161.9836 C.ar    1  UNL1        0.1128
     30 C         140.5507  139.4444  161.1620 C.1     1  UNL1        0.1043
     31 N         141.3996  138.5201  160.3405 N.1     1  UNL1       -0.1907
@<TRIPOS>BOND
     1     3     4    1
     2     4     5    1
     3     4     6    1
     4     6     7    1
     5     7     8   ar
     6     8     9   ar
     7     9    10   ar
     8    10    11   ar
     9    11    12   ar
    10    12    13   ar
    11    13    14   ar
    12    14    15   ar
    13    15    16   ar
    14     4     1    1
    15     1    17    1
    16    17    18    1
    17    18    19    1
    18    18    21    1
    19    21    22    1
    20    22    23    1
    21    23    24   ar
    22    24    25   ar
    23    25    26   ar
    24    26    27   ar
    25    27    28    1
    26    27    29   ar
    27    29    30    1
    28    30    31    3
    29    16     7   ar
    30    29    23   ar
    31    15    10   ar
    32     1     2    1
    33    19    20    1
@<TRIPOS>MOLECULE
*****
 31 33 0 0 0
SMALL
GASTEIGER

@<TRIPOS>ATOM
      1 N         141.4135  136.9549  162.5285 N.3     1  UNL1       -0.2972
      2 H         140.9684  136.2257  161.9713 H       1  UNL1        0.1233
      3 C         141.1756  137.0695  164.6333 C.3     1  UNL1        0.0161
      4 C         140.3616  137.4992  163.4489 C.3     1  UNL1        0.0461
      5 C         139.5475  137.9289  162.2646 C.3     1  UNL1        0.0161
      6 C         139.3096  138.0435  164.3694 C.3     1  UNL1        0.0408
      7 C         139.3514  139.4834  164.7879 C.ar    1  UNL1       -0.0209
      8 C         140.2123  139.9044  165.9418 C.ar    1  UNL1       -0.0042
      9 C         140.2541  141.3442  166.3602 C.ar    1  UNL1       -0.0003
     10 C         139.4348  142.3631  165.6248 C.ar    1  UNL1       -0.0000
     11 C         139.4766  143.8029  166.0433 C.ar    1  UNL1       -0.0000
     12 C         138.6574  144.8217  165.3078 C.ar    1  UNL1       -0.0000
     13 C         137.7964  144.4007  164.1539 C.ar    1  UNL1       -0.0000
     14 C         137.7547  142.9609  163.7354 C.ar    1  UNL1       -0.0000
     15 C         138.5739  141.9421  164.4709 C.ar    1  UNL1       -0.0003
     16 C         138.5322  140.5022  164.0524 C.ar    1  UNL1       -0.0042
     17 C         142.1138  137.8683  161.5665 C.3     1  UNL1        0.1020
     18 C         143.4973  138.3610  161.8720 C.3     1  UNL1        0.1697
     19 O         144.6910  137.5881  161.3947 O.3     1  UNL1       -0.3793
     20 H         144.3946  136.8027  160.9088 H       1  UNL1        0.2106
     21 C         143.6870  139.6264  162.6546 C.3     1  UNL1        0.2358
     22 O         142.5219  140.2527  163.3619 O.3     1  UNL1       -0.4721
     23 C         141.9033  141.5080  162.8218 C.ar    1  UNL1        0.1490
     24 C         140.9976  141.4442  161.6278 C.ar    1  UNL1        0.0377
     25 C         140.3790  142.6994  161.0877 C.ar    1  UNL1        0.0040
     26 C         140.6661  144.0185  161.7417 C.ar    1  UNL1        0.0123
     27 C         141.5718  144.0823  162.9356 C.ar    1  UNL1        0.0702
     28 CL        141.8590  145.4014  163.5896 Cl      1  UNL1       -0.0814
     29 C         142.1904  142.8271  163.4757 C.ar    1  UNL1        0.1128
     30 C         143.0961  142.8908  164.6697 C.1     1  UNL1        0.1043
     31 N         144.0018  142.9546  165.8637 N.1     1  UNL1       -0.1907
@<TRIPOS>BOND
     1     3     4    1
     2     4     5    1
     3     4     6    1
     4     6     7    1
     5     7     8   ar
     6     8     9   ar
     7     9    10   ar
     8    10    11   ar
     9    11    12   ar
    10    12    13   ar
    11    13    14   ar
    12    14    15   ar
    13    15    16   ar
    14     4     1    1
    15     1    17    1
    16    17    18    1
    17    18    19    1
    18    18    21    1
    19    21    22    1
    20    22    23    1
    21    23    24   ar
    22    24    25   ar
    23    25    26   ar
    24    26    27   ar
    25    27    28    1
    26    27    29   ar
    27    29    30    1
    28    30    31    3
    29    16     7   ar
    30    29    23   ar
    31    15    10   ar
    32     1     2    1
    33    19    20    1
@<TRIPOS>MOLECULE
*****
 31 33 0 0 0
SMALL
GASTEIGER

@<TRIPOS>ATOM
      1 N         140.2141  145.5515  163.9246 N.3     1  UNL1       -0.2972
      2 H         140.6026  145.3332  164.8421 H       1  UNL1        0.1233
      3 C         139.2835  144.5880  162.2797 C.3     1  UNL1        0.0161
      4 C         139.0025  144.6845  163.7500 C.3     1  UNL1        0.0461
      5 C         138.7215  144.7810  165.2203 C.3     1  UNL1        0.0161
      6 C         137.7910  143.8176  163.5753 C.3     1  UNL1        0.0408
      7 C         137.9487  142.3381  163.3839 C.ar    1  UNL1       -0.0209
      8 C         137.8048  141.7393  162.0162 C.ar    1  UNL1       -0.0042
      9 C         137.9624  140.2600  161.8248 C.ar    1  UNL1       -0.0003
     10 C         138.2640  139.3794  163.0011 C.ar    1  UNL1       -0.0000
     11 C         138.4217  137.9001  162.8097 C.ar    1  UNL1       -0.0000
     12 C         138.7233  137.0196  163.9860 C.ar    1  UNL1       -0.0000
     13 C         138.8672  137.6184  165.3538 C.ar    1  UNL1       -0.0000
     14 C         138.7095  139.0978  165.5452 C.ar    1  UNL1       -0.0000
     15 C         138.4079  139.9782  164.3689 C.ar    1  UNL1       -0.0003
     16 C         138.2503  141.4577  164.5603 C.ar    1  UNL1       -0.0042
     17 C         141.3456  145.4655  162.9436 C.3     1  UNL1        0.1020
     18 C         142.7027  145.0197  163.4012 C.3     1  UNL1        0.1697
     19 O         143.9319  145.5208  162.7025 O.3     1  UNL1       -0.3793
     20 H         143.6741  146.1191  161.9838 H       1  UNL1        0.2106
     21 C         142.8307  144.0728  164.5574 C.3     1  UNL1        0.2358
     22 O         141.7566  143.0590  164.8190 O.3     1  UNL1       -0.4721
     23 C         141.8187  141.7132  164.1593 C.ar    1  UNL1        0.1490
     24 C         141.5915  141.5911  162.6816 C.ar    1  UNL1        0.0377
     25 C         141.6536  140.2454  162.0220 C.ar    1  UNL1        0.0040
     26 C         141.9429  139.0218  162.8399 C.ar    1  UNL1        0.0123
     27 C         142.1701  139.1439  164.3176 C.ar    1  UNL1        0.0702
     28 CL        142.4594  137.9203  165.1355 Cl      1  UNL1       -0.0814
     29 C         142.1080  140.4896  164.9772 C.ar    1  UNL1        0.1128
     30 C         142.3352  140.6117  166.4549 C.1     1  UNL1        0.1043
     31 N         142.5624  140.7339  167.9325 N.1     1  UNL1       -0.1907
@<TRIPOS>BOND
     1     3     4    1
     2     4     5    1
     3     4     6    1
     4     6     7    1
     5     7     8   ar
     6     8     9   ar
     7     9    10   ar
     8    10    11   ar
     9    11    12   ar
    10    12    13   ar
    11    13    14   ar
    12    14    15   ar
    13    15    16   ar
    14     4     1    1
    15     1    17    1
    16    17    18    1
    17    18    19    1
    18    18    21    1
    19    21    22    1
    20    22    23    1
    21    23    24   ar
    22    24    25   ar
    23    25    26   ar
    24    26    27   ar
    25    27    28    1
    26    27    29   ar
    27    29    30    1
    28    30    31    3
    29    16     7   ar
    30    29    23   ar
    31    15    10   ar
    32     1     2    1
    33    19    20    1
@<TRIPOS>MOLECULE
*****
 31 33 0 0 0
SMALL
GASTEIGER

@<TRIPOS>ATOM
      1 N         141.7324  137.2143  162.1588 N.3     1  UNL1       -0.2972
      2 H         141.5943  136.2741  161.7882 H       1  UNL1        0.1233
      3 C         141.0520  137.2213  164.1681 C.3     1  UNL1        0.0161
      4 C         140.4559  137.6012  162.8450 C.3     1  UNL1        0.0461
      5 C         139.8598  137.9810  161.5220 C.3     1  UNL1        0.0161
      6 C         139.1793  137.9880  163.5312 C.3     1  UNL1        0.0408
      7 C         138.8278  139.4364  163.7001 C.ar    1  UNL1       -0.0209
      8 C         137.7498  140.0498  162.8564 C.ar    1  UNL1       -0.0042
      9 C         137.3982  141.4982  163.0252 C.ar    1  UNL1       -0.0003
     10 C         138.1245  142.3333  164.0378 C.ar    1  UNL1       -0.0000
     11 C         137.7729  143.7816  164.2066 C.ar    1  UNL1       -0.0000
     12 C         138.4992  144.6166  165.2191 C.ar    1  UNL1       -0.0000
     13 C         139.5772  144.0032  166.0628 C.ar    1  UNL1       -0.0000
     14 C         139.9288  142.5548  165.8940 C.ar    1  UNL1       -0.0000
     15 C         139.2025  141.7199  164.8815 C.ar    1  UNL1       -0.0003
     16 C         139.5541  140.2714  164.7126 C.ar    1  UNL1       -0.0042
     17 C         142.2612  138.0508  161.0316 C.3     1  UNL1        0.1020
     18 C         143.1237  139.2430  161.3228 C.3     1  UNL1        0.1697
     19 O         144.4921  139.0538  161.9076 O.3     1  UNL1       -0.3793
     20 H         144.6615  138.1072  162.0344 H       1  UNL1        0.2106
     21 C         142.6179  140.6243  161.0293 C.3     1  UNL1        0.2358
     22 O         141.5081  141.2073  161.8530 O.3     1  UNL1       -0.4721
     23 C         141.6427  142.5886  162.4223 C.ar    1  UNL1        0.1490
     24 C         142.6607  142.8643  163.4889 C.ar    1  UNL1        0.0377
     25 C         142.7951  144.2455  164.0582 C.ar    1  UNL1        0.0040
     26 C         141.9116  145.3510  163.5610 C.ar    1  UNL1        0.0123
     27 C         140.8936  145.0753  162.4944 C.ar    1  UNL1        0.0702
     28 CL        140.0101  146.1808  161.9972 Cl      1  UNL1       -0.0814
     29 C         140.7591  143.6941  161.9251 C.ar    1  UNL1        0.1128
     30 C         139.7411  143.4183  160.8585 C.1     1  UNL1        0.1043
     31 N         138.7231  143.1426  159.7919 N.1     1  UNL1       -0.1907
@<TRIPOS>BOND
     1     3     4    1
     2     4     5    1
     3     4     6    1
     4     6     7    1
     5     7     8   ar
     6     8     9   ar
     7     9    10   ar
     8    10    11   ar
     9    11    12   ar
    10    12    13   ar
    11    13    14   ar
    12    14    15   ar
    13    15    16   ar
    14     4     1    1
    15     1    17    1
    16    17    18    1
    17    18    19    1
    18    18    21    1
    19    21    22    1
    20    22    23    1
    21    23    24   ar
    22    24    25   ar
    23    25    26   ar
    24    26    27   ar
    25    27    28    1
    26    27    29   ar
    27    29    30    1
    28    30    31    3
    29    16     7   ar
    30    29    23   ar
    31    15    10   ar
    32     1     2    1
    33    19    20    1
@<TRIPOS>MOLECULE
*****
 31 33 0 0 0
SMALL
GASTEIGER

@<TRIPOS>ATOM
      1 N         140.2227  145.5760  163.7386 N.3     1  UNL1       -0.2972
      2 H         140.5902  145.4866  164.6859 H       1  UNL1        0.1233
      3 C         139.2290  144.5295  162.1838 C.3     1  UNL1        0.0161
      4 C         139.0118  144.6944  163.6588 C.3     1  UNL1        0.0461
      5 C         138.7946  144.8592  165.1338 C.3     1  UNL1        0.0161
      6 C         137.8009  143.8127  163.5790 C.3     1  UNL1        0.0408
      7 C         137.9612  142.3344  163.3811 C.ar    1  UNL1       -0.0209
      8 C         137.8058  141.7398  162.0127 C.ar    1  UNL1       -0.0042
      9 C         137.9661  140.2617  161.8147 C.ar    1  UNL1       -0.0003
     10 C         138.2818  139.3780  162.9851 C.ar    1  UNL1       -0.0000
     11 C         138.4420  137.8998  162.7870 C.ar    1  UNL1       -0.0000
     12 C         138.7577  137.0163  163.9573 C.ar    1  UNL1       -0.0000
     13 C         138.9130  137.6109  165.3257 C.ar    1  UNL1       -0.0000
     14 C         138.7527  139.0891  165.5237 C.ar    1  UNL1       -0.0000
     15 C         138.4371  139.9726  164.3534 C.ar    1  UNL1       -0.0003
     16 C         138.2768  141.4509  164.5514 C.ar    1  UNL1       -0.0042
     17 C         141.3751  145.3538  162.8044 C.3     1  UNL1        0.1020
     18 C         142.7013  144.9051  163.3427 C.3     1  UNL1        0.1697
     19 O         143.9683  145.5127  162.8178 O.3     1  UNL1       -0.3793
     20 H         143.7537  146.1735  162.1409 H       1  UNL1        0.2106
     21 C         142.7605  143.8487  164.4059 C.3     1  UNL1        0.2358
     22 O         141.6224  142.8855  164.5704 O.3     1  UNL1       -0.4721
     23 C         141.8962  141.4166  164.7028 C.ar    1  UNL1        0.1490
     24 C         142.2071  140.8298  166.0477 C.ar    1  UNL1        0.0377
     25 C         142.4809  139.3610  166.1800 C.ar    1  UNL1        0.0040
     26 C         142.4438  138.4789  164.9674 C.ar    1  UNL1        0.0123
     27 C         142.1329  139.0657  163.6224 C.ar    1  UNL1        0.0702
     28 CL        142.0958  138.1836  162.4097 Cl      1  UNL1       -0.0814
     29 C         141.8591  140.5345  163.4901 C.ar    1  UNL1        0.1128
     30 C         141.5482  141.1214  162.1451 C.1     1  UNL1        0.1043
     31 N         141.2373  141.7081  160.8001 N.1     1  UNL1       -0.1907
@<TRIPOS>BOND
     1     3     4    1
     2     4     5    1
     3     4     6    1
     4     6     7    1
     5     7     8   ar
     6     8     9   ar
     7     9    10   ar
     8    10    11   ar
     9    11    12   ar
    10    12    13   ar
    11    13    14   ar
    12    14    15   ar
    13    15    16   ar
    14     4     1    1
    15     1    17    1
    16    17    18    1
    17    18    19    1
    18    18    21    1
    19    21    22    1
    20    22    23    1
    21    23    24   ar
    22    24    25   ar
    23    25    26   ar
    24    26    27   ar
    25    27    28    1
    26    27    29   ar
    27    29    30    1
    28    30    31    3
    29    16     7   ar
    30    29    23   ar
    31    15    10   ar
    32     1     2    1
    33    19    20    1
@<TRIPOS>MOLECULE
*****
 31 33 0 0 0
SMALL
GASTEIGER

@<TRIPOS>ATOM
      1 N         143.0890  144.8141  162.1173 N.3     1  UNL1       -0.2972
      2 H         143.5059  145.7429  162.1787 H       1  UNL1        0.1233
      3 C         141.0088  145.1018  161.8169 C.3     1  UNL1        0.0161
      4 C         141.8802  144.8224  163.0055 C.3     1  UNL1        0.0461
      5 C         142.7516  144.5430  164.1940 C.3     1  UNL1        0.0161
      6 C         140.6715  144.8307  163.8936 C.3     1  UNL1        0.0408
      7 C         140.0470  143.5360  164.3225 C.ar    1  UNL1       -0.0209
      8 C         139.1391  142.7949  163.3864 C.ar    1  UNL1       -0.0042
      9 C         138.5146  141.5003  163.8152 C.ar    1  UNL1       -0.0003
     10 C         138.7981  140.9467  165.1803 C.ar    1  UNL1       -0.0000
     11 C         138.1736  139.6521  165.6091 C.ar    1  UNL1       -0.0000
     12 C         138.4570  139.0986  166.9741 C.ar    1  UNL1       -0.0000
     13 C         139.3649  139.8398  167.9103 C.ar    1  UNL1       -0.0000
     14 C         139.9894  141.1344  167.4814 C.ar    1  UNL1       -0.0000
     15 C         139.7060  141.6879  166.1164 C.ar    1  UNL1       -0.0003
     16 C         140.3304  142.9826  165.6875 C.ar    1  UNL1       -0.0042
     17 C         144.1920  143.8272  162.3611 C.3     1  UNL1        0.1020
     18 C         144.4382  142.7199  161.3796 C.3     1  UNL1        0.1697
     19 O         145.5846  142.8123  160.4166 O.3     1  UNL1       -0.3793
     20 H         146.0620  143.6442  160.5611 H       1  UNL1        0.2106
     21 C         143.5379  141.5203  161.3611 C.3     1  UNL1        0.2358
     22 O         142.3356  141.4709  162.2565 O.3     1  UNL1       -0.4721
     23 C         142.3325  140.5747  163.4594 C.ar    1  UNL1        0.1490
     24 C         143.1218  140.9520  164.6778 C.ar    1  UNL1        0.0377
     25 C         143.1187  140.0558  165.8806 C.ar    1  UNL1        0.0040
     26 C         142.3264  138.7822  165.8650 C.ar    1  UNL1        0.0123
     27 C         141.5372  138.4049  164.6465 C.ar    1  UNL1        0.0702
     28 CL        140.7449  137.1313  164.6309 Cl      1  UNL1       -0.0814
     29 C         141.5402  139.3011  163.4437 C.ar    1  UNL1        0.1128
     30 C         140.7510  138.9238  162.2252 C.1     1  UNL1        0.1043
     31 N         139.9618  138.5464  161.0067 N.1     1  UNL1       -0.1907
@<TRIPOS>BOND
     1     3     4    1
     2     4     5    1
     3     4     6    1
     4     6     7    1
     5     7     8   ar
     6     8     9   ar
     7     9    10   ar
     8    10    11   ar
     9    11    12   ar
    10    12    13   ar
    11    13    14   ar
    12    14    15   ar
    13    15    16   ar
    14     4     1    1
    15     1    17    1
    16    17    18    1
    17    18    19    1
    18    18    21    1
    19    21    22    1
    20    22    23    1
    21    23    24   ar
    22    24    25   ar
    23    25    26   ar
    24    26    27   ar
    25    27    28    1
    26    27    29   ar
    27    29    30    1
    28    30    31    3
    29    16     7   ar
    30    29    23   ar
    31    15    10   ar
    32     1     2    1
    33    19    20    1
@<TRIPOS>MOLECULE
*****
 31 33 0 0 0
SMALL
GASTEIGER

@<TRIPOS>ATOM
      1 N         137.8498  143.6181  162.2897 N.3     1  UNL1       -0.2972
      2 H         136.8828  143.9239  162.1813 H       1  UNL1        0.1233
      3 C         137.8159  143.0317  164.3281 C.3     1  UNL1        0.0161
      4 C         137.8103  142.3059  163.0153 C.3     1  UNL1        0.0461
      5 C         137.8046  141.5801  161.7026 C.3     1  UNL1        0.0161
      6 C         137.7707  140.9937  163.7410 C.3     1  UNL1        0.0408
      7 C         139.0493  140.3215  164.1453 C.ar    1  UNL1       -0.0209
      8 C         139.8012  139.4824  163.1551 C.ar    1  UNL1       -0.0042
      9 C         141.0797  138.8102  163.5594 C.ar    1  UNL1       -0.0003
     10 C         141.6064  138.9770  164.9540 C.ar    1  UNL1       -0.0000
     11 C         142.8849  138.3048  165.3583 C.ar    1  UNL1       -0.0000
     12 C         143.4115  138.4716  166.7528 C.ar    1  UNL1       -0.0000
     13 C         142.6596  139.3107  167.7431 C.ar    1  UNL1       -0.0000
     14 C         141.3811  139.9829  167.3388 C.ar    1  UNL1       -0.0000
     15 C         140.8545  139.8161  165.9442 C.ar    1  UNL1       -0.0003
     16 C         139.5759  140.4883  165.5399 C.ar    1  UNL1       -0.0042
     17 C         138.6070  144.7747  162.8720 C.3     1  UNL1        0.1020
     18 C         139.8212  145.3061  162.1696 C.3     1  UNL1        0.1697
     19 O         140.0805  146.7831  162.1336 O.3     1  UNL1       -0.3793
     20 H         139.3728  147.2473  162.6077 H       1  UNL1        0.2106
     21 C         140.7761  144.3606  161.5032 C.3     1  UNL1        0.2358
     22 O         140.9194  142.9568  162.0121 O.3     1  UNL1       -0.4721
     23 C         141.8968  142.6528  163.1087 C.ar    1  UNL1        0.1490
     24 C         141.6907  143.2290  164.4781 C.ar    1  UNL1        0.0377
     25 C         142.6680  142.9250  165.5746 C.ar    1  UNL1        0.0040
     26 C         143.8515  142.0447  165.3017 C.ar    1  UNL1        0.0123
     27 C         144.0576  141.4685  163.9322 C.ar    1  UNL1        0.0702
     28 CL        145.2411  140.5882  163.6593 Cl      1  UNL1       -0.0814
     29 C         143.0803  141.7725  162.8358 C.ar    1  UNL1        0.1128
     30 C         143.2864  141.1963  161.4662 C.1     1  UNL1        0.1043
     31 N         143.4924  140.6200  160.0968 N.1     1  UNL1       -0.1907
@<TRIPOS>BOND
     1     3     4    1
     2     4     5    1
     3     4     6    1
     4     6     7    1
     5     7     8   ar
     6     8     9   ar
     7     9    10   ar
     8    10    11   ar
     9    11    12   ar
    10    12    13   ar
    11    13    14   ar
    12    14    15   ar
    13    15    16   ar
    14     4     1    1
    15     1    17    1
    16    17    18    1
    17    18    19    1
    18    18    21    1
    19    21    22    1
    20    22    23    1
    21    23    24   ar
    22    24    25   ar
    23    25    26   ar
    24    26    27   ar
    25    27    28    1
    26    27    29   ar
    27    29    30    1
    28    30    31    3
    29    16     7   ar
    30    29    23   ar
    31    15    10   ar
    32     1     2    1
    33    19    20    1
@<TRIPOS>MOLECULE
*****
 31 33 0 0 0
SMALL
GASTEIGER

@<TRIPOS>ATOM
      1 N         143.3574  143.6161  162.3674 N.3     1  UNL1       -0.2972
      2 H         144.3376  143.5332  162.0978 H       1  UNL1        0.1233
      3 C         142.2249  144.2390  164.0495 C.3     1  UNL1        0.0161
      4 C         143.2648  143.1867  163.8016 C.3     1  UNL1        0.0461
      5 C         144.3047  142.1345  163.5537 C.3     1  UNL1        0.0161
      6 C         143.1722  142.7574  165.2359 C.3     1  UNL1        0.0408
      7 C         142.0220  141.9096  165.6922 C.ar    1  UNL1       -0.0209
      8 C         141.2918  142.2538  166.9565 C.ar    1  UNL1       -0.0042
      9 C         140.1416  141.4061  167.4128 C.ar    1  UNL1       -0.0003
     10 C         139.7215  140.2140  166.6049 C.ar    1  UNL1       -0.0000
     11 C         138.5713  139.3663  167.0613 C.ar    1  UNL1       -0.0000
     12 C         138.1512  138.1744  166.2534 C.ar    1  UNL1       -0.0000
     13 C         138.8814  137.8301  164.9891 C.ar    1  UNL1       -0.0000
     14 C         140.0316  138.6778  164.5328 C.ar    1  UNL1       -0.0000
     15 C         140.4517  139.8698  165.3407 C.ar    1  UNL1       -0.0003
     16 C         141.6019  140.7176  164.8843 C.ar    1  UNL1       -0.0042
     17 C         142.5578  142.9025  161.3178 C.3     1  UNL1        0.1020
     18 C         141.6213  143.6733  160.4353 C.3     1  UNL1        0.1697
     19 O         141.8592  145.1327  160.1827 O.3     1  UNL1       -0.3793
     20 H         142.6535  145.4183  160.6606 H       1  UNL1        0.2106
     21 C         140.4469  142.9849  159.8054 C.3     1  UNL1        0.2358
     22 O         139.0548  143.3100  160.2595 O.3     1  UNL1       -0.4721
     23 C         138.6377  143.0147  161.6698 C.ar    1  UNL1        0.1490
     24 C         138.0941  141.6622  162.0236 C.ar    1  UNL1        0.0377
     25 C         137.6771  141.3669  163.4338 C.ar    1  UNL1        0.0040
     26 C         137.8037  142.4242  164.4904 C.ar    1  UNL1        0.0123
     27 C         138.3473  143.7766  164.1366 C.ar    1  UNL1        0.0702
     28 CL        138.4739  144.8339  165.1931 Cl      1  UNL1       -0.0814
     29 C         138.7643  144.0719  162.7264 C.ar    1  UNL1        0.1128
     30 C         139.3080  145.4245  162.3726 C.1     1  UNL1        0.1043
     31 N         139.8516  146.7770  162.0188 N.1     1  UNL1       -0.1907
@<TRIPOS>BOND
     1     3     4    1
     2     4     5    1
     3     4     6    1
     4     6     7    1
     5     7     8   ar
     6     8     9   ar
     7     9    10   ar
     8    10    11   ar
     9    11    12   ar
    10    12    13   ar
    11    13    14   ar
    12    14    15   ar
    13    15    16   ar
    14     4     1    1
    15     1    17    1
    16    17    18    1
    17    18    19    1
    18    18    21    1
    19    21    22    1
    20    22    23    1
    21    23    24   ar
    22    24    25   ar
    23    25    26   ar
    24    26    27   ar
    25    27    28    1
    26    27    29   ar
    27    29    30    1
    28    30    31    3
    29    16     7   ar
    30    29    23   ar
    31    15    10   ar
    32     1     2    1
    33    19    20    1
@<TRIPOS>MOLECULE
*****
 31 33 0 0 0
SMALL
GASTEIGER

@<TRIPOS>ATOM
      1 N         139.4060  137.7038  161.7972 N.3     1  UNL1       -0.2972
      2 H         139.1225  136.7496  161.5748 H       1  UNL1        0.1233
      3 C         141.5184  137.5979  161.9606 C.3     1  UNL1        0.0161
      4 C         140.3786  137.6124  162.9355 C.3     1  UNL1        0.0461
      5 C         139.2387  137.6268  163.9105 C.3     1  UNL1        0.0161
      6 C         141.3511  137.5209  164.0739 C.3     1  UNL1        0.0408
      7 C         141.8831  138.7719  164.7081 C.ar    1  UNL1       -0.0209
      8 C         141.4848  139.1302  166.1092 C.ar    1  UNL1       -0.0042
      9 C         142.0168  140.3811  166.7434 C.ar    1  UNL1       -0.0003
     10 C         142.9470  141.2737  165.9766 C.ar    1  UNL1       -0.0000
     11 C         143.4790  142.5246  166.6109 C.ar    1  UNL1       -0.0000
     12 C         144.4092  143.4171  165.8441 C.ar    1  UNL1       -0.0000
     13 C         144.8075  143.0587  164.4430 C.ar    1  UNL1       -0.0000
     14 C         144.2756  141.8079  163.8088 C.ar    1  UNL1       -0.0000
     15 C         143.3453  140.9154  164.5756 C.ar    1  UNL1       -0.0003
     16 C         142.8133  139.6644  163.9413 C.ar    1  UNL1       -0.0042
     17 C         138.1472  138.5054  161.9488 C.3     1  UNL1        0.1020
     18 C         137.8295  139.5954  160.9686 C.3     1  UNL1        0.1697
     19 O         136.5556  139.5456  160.1782 O.3     1  UNL1       -0.3793
     20 H         136.0562  138.7498  160.4198 H       1  UNL1        0.2106
     21 C         138.7858  140.7354  160.7787 C.3     1  UNL1        0.2358
     22 O         140.0301  140.8173  161.6124 O.3     1  UNL1       -0.4721
     23 C         140.0698  141.7136  162.8146 C.ar    1  UNL1        0.1490
     24 C         139.2805  141.3598  164.0401 C.ar    1  UNL1        0.0377
     25 C         139.3202  142.2561  165.2422 C.ar    1  UNL1        0.0040
     26 C         140.1491  143.5061  165.2188 C.ar    1  UNL1        0.0123
     27 C         140.9383  143.8598  163.9932 C.ar    1  UNL1        0.0702
     28 CL        141.7672  145.1098  163.9698 Cl      1  UNL1       -0.0814
     29 C         140.8986  142.9635  162.7911 C.ar    1  UNL1        0.1128
     30 C         141.6878  143.3172  161.5655 C.1     1  UNL1        0.1043
     31 N         142.4770  143.6710  160.3399 N.1     1  UNL1       -0.1907
@<TRIPOS>BOND
     1     3     4    1
     2     4     5    1
     3     4     6    1
     4     6     7    1
     5     7     8   ar
     6     8     9   ar
     7     9    10   ar
     8    10    11   ar
     9    11    12   ar
    10    12    13   ar
    11    13    14   ar
    12    14    15   ar
    13    15    16   ar
    14     4     1    1
    15     1    17    1
    16    17    18    1
    17    18    19    1
    18    18    21    1
    19    21    22    1
    20    22    23    1
    21    23    24   ar
    22    24    25   ar
    23    25    26   ar
    24    26    27   ar
    25    27    28    1
    26    27    29   ar
    27    29    30    1
    28    30    31    3
    29    16     7   ar
    30    29    23   ar
    31    15    10   ar
    32     1     2    1
    33    19    20    1
