@<TRIPOS>MOLECULE
*****
 32 37 0 0 0
SMALL
GASTEIGER

@<TRIPOS>ATOM
      1 C         142.5603  136.7086  157.6788 C.3     1  UNL1        0.1161
      2 C         143.2900  135.4131  157.4805 C.3     1  UNL1        0.0510
      3 C         142.9277  134.5161  156.3342 C.2     1  UNL1       -0.0044
      4 C         141.8357  134.9145  155.3863 C.2     1  UNL1        0.0689
      5 N         141.7000  133.8337  154.3550 N.2     1  UNL1       -0.2526
      6 C         142.7082  132.7673  154.6657 C.2     1  UNL1        0.0627
      7 C         143.0333  131.4668  153.9927 C.3     1  UNL1        0.0717
      8 C         144.1172  130.5881  154.5430 C.2     1  UNL1       -0.0198
      9 C         144.8760  131.0098  155.7662 C.2     1  UNL1       -0.0042
     10 C         144.5509  132.3104  156.4392 C.2     1  UNL1        0.0006
     11 C         143.4670  133.1891  155.8889 C.2     1  UNL1        0.0111
     12 C         141.1059  136.2099  155.5846 C.3     1  UNL1        0.0949
     13 N         141.4682  137.1070  156.7309 N.3     1  UNL1       -0.2887
     14 H         140.6230  137.2273  157.2891 H       1  UNL1        0.1239
     15 C         143.2613  138.4563  161.0729 C.ar    1  UNL1        0.0784
     16 C         143.6990  139.5157  160.1055 C.ar    1  UNL1        0.1172
     17 N         143.4897  138.9900  158.7163 N.ar    1  UNL1       -0.2282
     18 C         142.9226  137.6057  158.8252 C.ar    1  UNL1        0.1318
     19 N         142.7814  137.2758  160.2816 N.ar    1  UNL1       -0.3396
     20 H         142.4347  136.4325  160.6529 H       1  UNL1        0.1671
     21 C         144.4778  139.3556  164.7418 C.ar    1  UNL1        0.0207
     22 C         143.3686  138.7650  165.5610 C.ar    1  UNL1        0.0989
     23 N         142.2237  138.0716  164.8841 N.ar    1  UNL1       -0.2423
     24 C         142.1879  137.9687  163.3881 C.ar    1  UNL1        0.1003
     25 C         143.2971  138.5592  162.5690 C.ar    1  UNL1        0.0363
     26 C         144.4420  139.2527  163.2458 C.ar    1  UNL1        0.0046
     27 C         140.0138  136.6083  154.6366 C.3     1  UNL1        0.0252
     28 C         138.7402  137.1984  155.1651 C.3     1  UNL1        0.0339
     29 C         137.6481  137.5967  154.2171 C.3     1  UNL1        0.1422
     30 O         137.8297  137.4050  152.7405 O.3     1  UNL1       -0.3538
     31 C         139.1035  136.8149  152.2120 C.3     1  UNL1        0.1422
     32 C         140.1955  136.4165  153.1600 C.3     1  UNL1        0.0339
@<TRIPOS>BOND
     1    21    22   ar
     2    22    23   ar
     3    23    24   ar
     4    24    25   ar
     5    25    15    1
     6    15    16   ar
     7    16    17   ar
     8    17    18   ar
     9     1    18    1
    10     1     2    1
    11     2     3    1
    12     3     4    2
    13     4     5    1
    14     5     6    2
    15     6     7    1
    16     7     8    1
    17     8     9    2
    18     9    10    1
    19    10    11    2
    20     4    12    1
    21    12    27    1
    22    27    28    1
    23    28    29    1
    24    29    30    1
    25    30    31    1
    26    31    32    1
    27    12    13    1
    28    18    19   ar
    29    25    26   ar
    30    26    21   ar
    31    19    15   ar
    32    13     1    1
    33    11     3    1
    34    32    27    1
    35    11     6    1
    36    13    14    1
    37    19    20    1
@<TRIPOS>MOLECULE
*****
 32 37 0 0 0
SMALL
GASTEIGER

@<TRIPOS>ATOM
      1 C         142.0719  140.0103  160.6969 C.3     1  UNL1        0.1161
      2 C         142.5194  139.3797  161.9823 C.3     1  UNL1        0.0510
      3 C         142.2149  140.0469  163.2908 C.2     1  UNL1       -0.0044
      4 C         141.4628  141.3445  163.3139 C.2     1  UNL1        0.0689
      5 N         141.3090  141.7656  164.7453 N.2     1  UNL1       -0.2526
      6 C         141.9659  140.7282  165.6069 C.2     1  UNL1        0.0627
      7 C         142.1266  140.6136  167.0938 C.3     1  UNL1        0.0717
      8 C         142.8471  139.4367  167.6818 C.2     1  UNL1       -0.0198
      9 C         143.4070  138.3745  166.7828 C.2     1  UNL1       -0.0042
     10 C         143.2463  138.4891  165.2959 C.2     1  UNL1        0.0006
     11 C         142.5258  139.6659  164.7079 C.2     1  UNL1        0.0111
     12 C         141.0153  141.9750  162.0285 C.3     1  UNL1        0.0949
     13 N         141.3199  141.3079  160.7200 N.3     1  UNL1       -0.2887
     14 H         141.8633  141.9730  160.1698 H       1  UNL1        0.1239
     15 C         142.4721  137.7056  157.5995 C.ar    1  UNL1        0.0784
     16 C         143.2180  138.9271  157.1503 C.ar    1  UNL1        0.1172
     17 N         143.1589  139.9390  158.2559 N.ar    1  UNL1       -0.2282
     18 C         142.3765  139.3431  159.3884 C.ar    1  UNL1        0.1318
     19 N         141.9520  137.9628  158.9827 N.ar    1  UNL1       -0.3396
     20 H         141.4247  137.3357  159.5285 H       1  UNL1        0.1671
     21 C         143.0140  134.0274  156.2113 C.ar    1  UNL1        0.0207
     22 C         141.8959  133.9325  155.2159 C.ar    1  UNL1        0.0989
     23 N         140.9699  135.0953  155.0150 N.ar    1  UNL1       -0.2423
     24 C         141.1619  136.3530  155.8096 C.ar    1  UNL1        0.1003
     25 C         142.2801  136.4479  156.8049 C.ar    1  UNL1        0.0363
     26 C         143.2061  135.2851  157.0058 C.ar    1  UNL1        0.0046
     27 C         140.2633  143.2727  162.0516 C.3     1  UNL1        0.0252
     28 C         138.9284  143.3539  162.7306 C.3     1  UNL1        0.0339
     29 C         138.1763  144.6516  162.7537 C.3     1  UNL1        0.1422
     30 O         138.7594  145.8681  162.0977 O.3     1  UNL1       -0.3538
     31 C         140.0944  145.7869  161.4187 C.3     1  UNL1        0.1422
     32 C         140.8463  144.4892  161.3956 C.3     1  UNL1        0.0339
@<TRIPOS>BOND
     1    21    22   ar
     2    22    23   ar
     3    23    24   ar
     4    24    25   ar
     5    25    15    1
     6    15    16   ar
     7    16    17   ar
     8    17    18   ar
     9     1    18    1
    10     1     2    1
    11     2     3    1
    12     3     4    2
    13     4     5    1
    14     5     6    2
    15     6     7    1
    16     7     8    1
    17     8     9    2
    18     9    10    1
    19    10    11    2
    20     4    12    1
    21    12    27    1
    22    27    28    1
    23    28    29    1
    24    29    30    1
    25    30    31    1
    26    31    32    1
    27    12    13    1
    28    18    19   ar
    29    25    26   ar
    30    26    21   ar
    31    19    15   ar
    32    13     1    1
    33    11     3    1
    34    32    27    1
    35    11     6    1
    36    13    14    1
    37    19    20    1
@<TRIPOS>MOLECULE
*****
 32 37 0 0 0
SMALL
GASTEIGER

@<TRIPOS>ATOM
      1 C         139.3610  139.6746  157.5875 C.3     1  UNL1        0.1161
      2 C         139.0565  139.5908  159.0538 C.3     1  UNL1        0.0510
      3 C         138.7217  140.8346  159.8226 C.2     1  UNL1       -0.0044
      4 C         138.6913  142.1621  159.1249 C.2     1  UNL1        0.0689
      5 N         138.3308  143.2092  160.1366 N.2     1  UNL1       -0.2526
      6 C         138.1384  142.5289  161.4595 C.2     1  UNL1        0.0627
      7 C         137.7745  143.0562  162.8158 C.3     1  UNL1        0.0717
      8 C         137.6521  142.1158  163.9779 C.2     1  UNL1       -0.0198
      9 C         137.8936  140.6482  163.7838 C.2     1  UNL1       -0.0042
     10 C         138.2576  140.1209  162.4276 C.2     1  UNL1        0.0006
     11 C         138.3800  141.0612  161.2654 C.2     1  UNL1        0.0111
     12 C         138.9958  142.2459  157.6585 C.3     1  UNL1        0.0949
     13 N         139.3307  141.0021  156.8898 N.3     1  UNL1       -0.2887
     14 H         140.2573  141.1448  156.4879 H       1  UNL1        0.1239
     15 C         140.8264  136.4236  156.0548 C.ar    1  UNL1        0.0784
     16 C         139.5962  136.6101  155.2170 C.ar    1  UNL1        0.1172
     17 N         138.8975  137.8506  155.6892 N.ar    1  UNL1       -0.2282
     18 C         139.6959  138.4308  156.8187 C.ar    1  UNL1        0.1318
     19 N         140.8880  137.5489  157.0447 N.ar    1  UNL1       -0.3396
     20 H         141.5880  137.6847  157.7236 H       1  UNL1        0.1671
     21 C         142.6482  133.1603  154.7198 C.ar    1  UNL1        0.0207
     22 C         143.8085  133.0760  155.6667 C.ar    1  UNL1        0.0989
     23 N         143.9748  134.1076  156.7429 N.ar    1  UNL1       -0.2423
     24 C         142.9808  135.2234  156.8722 C.ar    1  UNL1        0.1003
     25 C         141.8204  135.3077  155.9254 C.ar    1  UNL1        0.0363
     26 C         141.6542  134.2762  154.8492 C.ar    1  UNL1        0.0046
     27 C         138.9654  143.5734  156.9608 C.3     1  UNL1        0.0252
     28 C         139.9437  144.6442  157.3433 C.3     1  UNL1        0.0339
     29 C         139.9133  145.9717  156.6455 C.3     1  UNL1        0.1422
     30 O         138.9046  146.2284  155.5653 O.3     1  UNL1       -0.3538
     31 C         137.9263  145.1575  155.1829 C.3     1  UNL1        0.1422
     32 C         137.9568  143.8301  155.8806 C.3     1  UNL1        0.0339
@<TRIPOS>BOND
     1    21    22   ar
     2    22    23   ar
     3    23    24   ar
     4    24    25   ar
     5    25    15    1
     6    15    16   ar
     7    16    17   ar
     8    17    18   ar
     9     1    18    1
    10     1     2    1
    11     2     3    1
    12     3     4    2
    13     4     5    1
    14     5     6    2
    15     6     7    1
    16     7     8    1
    17     8     9    2
    18     9    10    1
    19    10    11    2
    20     4    12    1
    21    12    27    1
    22    27    28    1
    23    28    29    1
    24    29    30    1
    25    30    31    1
    26    31    32    1
    27    12    13    1
    28    18    19   ar
    29    25    26   ar
    30    26    21   ar
    31    19    15   ar
    32    13     1    1
    33    11     3    1
    34    32    27    1
    35    11     6    1
    36    13    14    1
    37    19    20    1
@<TRIPOS>MOLECULE
*****
 32 37 0 0 0
SMALL
GASTEIGER

@<TRIPOS>ATOM
      1 C         143.2536  142.9546  157.3876 C.3     1  UNL1        0.1161
      2 C         143.3273  143.2116  158.8636 C.3     1  UNL1        0.0510
      3 C         142.2064  143.9275  159.5571 C.2     1  UNL1       -0.0044
      4 C         141.0118  144.3866  158.7746 C.2     1  UNL1        0.0689
      5 N         140.0677  145.0626  159.7241 N.2     1  UNL1       -0.2526
      6 C         140.6787  145.0214  161.0934 C.2     1  UNL1        0.0627
      7 C         140.2022  145.5321  162.4208 C.3     1  UNL1        0.0717
      8 C         141.0475  145.3412  163.6451 C.2     1  UNL1       -0.0198
      9 C         142.3693  144.6396  163.5419 C.2     1  UNL1       -0.0042
     10 C         142.8458  144.1290  162.2145 C.2     1  UNL1        0.0006
     11 C         142.0005  144.3199  160.9902 C.2     1  UNL1        0.0111
     12 C         140.9382  144.1296  157.2986 C.3     1  UNL1        0.0949
     13 N         142.0591  143.4137  156.6051 N.3     1  UNL1       -0.2887
     14 H         142.4057  144.0417  155.8800 H       1  UNL1        0.1239
     15 C         146.4598  141.7885  155.5367 C.ar    1  UNL1        0.0784
     16 C         145.7393  140.4853  155.7174 C.ar    1  UNL1        0.1172
     17 N         144.4505  140.7636  156.4327 N.ar    1  UNL1       -0.2282
     18 C         144.3746  142.2386  156.6941 C.ar    1  UNL1        0.1318
     19 N         145.6164  142.8721  156.1404 N.ar    1  UNL1       -0.3396
     20 H         145.8388  143.8307  156.1683 H       1  UNL1        0.1671
     21 C         150.3853  141.8928  154.9626 C.ar    1  UNL1        0.0207
     22 C         150.4510  142.3488  153.5351 C.ar    1  UNL1        0.0989
     23 N         149.1863  142.6180  152.7748 N.ar    1  UNL1       -0.2423
     24 C         147.8560  142.4313  153.4420 C.ar    1  UNL1        0.1003
     25 C         147.7903  141.9753  154.8695 C.ar    1  UNL1        0.0363
     26 C         149.0550  141.7060  155.6298 C.ar    1  UNL1        0.0046
     27 C         139.7437  144.5887  156.5160 C.3     1  UNL1        0.0252
     28 C         138.6263  143.6320  156.2230 C.3     1  UNL1        0.0339
     29 C         137.4317  144.0911  155.4404 C.3     1  UNL1        0.1422
     30 O         137.3547  145.5069  154.9510 O.3     1  UNL1       -0.3538
     31 C         138.4721  146.4636  155.2440 C.3     1  UNL1        0.1422
     32 C         139.6666  146.0045  156.0266 C.3     1  UNL1        0.0339
@<TRIPOS>BOND
     1    21    22   ar
     2    22    23   ar
     3    23    24   ar
     4    24    25   ar
     5    25    15    1
     6    15    16   ar
     7    16    17   ar
     8    17    18   ar
     9     1    18    1
    10     1     2    1
    11     2     3    1
    12     3     4    2
    13     4     5    1
    14     5     6    2
    15     6     7    1
    16     7     8    1
    17     8     9    2
    18     9    10    1
    19    10    11    2
    20     4    12    1
    21    12    27    1
    22    27    28    1
    23    28    29    1
    24    29    30    1
    25    30    31    1
    26    31    32    1
    27    12    13    1
    28    18    19   ar
    29    25    26   ar
    30    26    21   ar
    31    19    15   ar
    32    13     1    1
    33    11     3    1
    34    32    27    1
    35    11     6    1
    36    13    14    1
    37    19    20    1
@<TRIPOS>MOLECULE
*****
 32 37 0 0 0
SMALL
GASTEIGER

@<TRIPOS>ATOM
      1 C         143.3588  140.1599  158.0575 C.3     1  UNL1        0.1161
      2 C         143.9100  140.1472  159.4526 C.3     1  UNL1        0.0510
      3 C         143.7934  141.3681  160.3162 C.2     1  UNL1       -0.0044
      4 C         143.1257  142.6017  159.7847 C.2     1  UNL1        0.0689
      5 N         143.1579  143.6462  160.8607 N.2     1  UNL1       -0.2526
      6 C         143.8456  143.0583  162.0572 C.2     1  UNL1        0.0627
      7 C         144.1649  143.6231  163.4096 C.3     1  UNL1        0.0717
      8 C         144.8769  142.7798  164.4254 C.2     1  UNL1       -0.0198
      9 C         145.2697  141.3718  164.0888 C.2     1  UNL1       -0.0042
     10 C         144.9504  140.8070  162.7364 C.2     1  UNL1        0.0006
     11 C         144.2383  141.6503  161.7206 C.2     1  UNL1        0.0111
     12 C         142.5745  142.6144  158.3897 C.3     1  UNL1        0.0949
     13 N         142.6911  141.3935  157.5261 N.3     1  UNL1       -0.2887
     14 H         143.2074  141.6714  156.6914 H       1  UNL1        0.1239
     15 C         143.2342  136.6753  156.3523 C.ar    1  UNL1        0.0784
     16 C         144.0754  137.4450  155.3777 C.ar    1  UNL1        0.1172
     17 N         144.2245  138.8440  155.8978 N.ar    1  UNL1       -0.2282
     18 C         143.4754  138.9390  157.1939 C.ar    1  UNL1        0.1318
     19 N         142.8634  137.5987  157.4748 N.ar    1  UNL1       -0.3396
     20 H         142.3146  137.3659  158.2584 H       1  UNL1        0.1671
     21 C         141.5879  133.3498  154.9450 C.ar    1  UNL1        0.0207
     22 C         142.0337  132.3549  155.9752 C.ar    1  UNL1        0.0989
     23 N         142.8798  132.8000  157.1310 N.ar    1  UNL1       -0.2423
     24 C         143.2799  134.2402  157.2567 C.ar    1  UNL1        0.1003
     25 C         142.8340  135.2351  156.2266 C.ar    1  UNL1        0.0363
     26 C         141.9880  134.7900  155.0707 C.ar    1  UNL1        0.0046
     27 C         141.9068  143.8479  157.8583 C.3     1  UNL1        0.0252
     28 C         142.4086  144.4887  156.5983 C.3     1  UNL1        0.0339
     29 C         141.7408  145.7223  156.0669 C.3     1  UNL1        0.1422
     30 O         140.5712  146.3151  156.7955 O.3     1  UNL1       -0.3538
     31 C         140.0695  145.6743  158.0555 C.3     1  UNL1        0.1422
     32 C         140.7372  144.4408  158.5869 C.3     1  UNL1        0.0339
@<TRIPOS>BOND
     1    21    22   ar
     2    22    23   ar
     3    23    24   ar
     4    24    25   ar
     5    25    15    1
     6    15    16   ar
     7    16    17   ar
     8    17    18   ar
     9     1    18    1
    10     1     2    1
    11     2     3    1
    12     3     4    2
    13     4     5    1
    14     5     6    2
    15     6     7    1
    16     7     8    1
    17     8     9    2
    18     9    10    1
    19    10    11    2
    20     4    12    1
    21    12    27    1
    22    27    28    1
    23    28    29    1
    24    29    30    1
    25    30    31    1
    26    31    32    1
    27    12    13    1
    28    18    19   ar
    29    25    26   ar
    30    26    21   ar
    31    19    15   ar
    32    13     1    1
    33    11     3    1
    34    32    27    1
    35    11     6    1
    36    13    14    1
    37    19    20    1
@<TRIPOS>MOLECULE
*****
 32 37 0 0 0
SMALL
GASTEIGER

@<TRIPOS>ATOM
      1 C         140.8399  144.8747  157.5847 C.3     1  UNL1        0.1161
      2 C         140.8442  145.1544  159.0584 C.3     1  UNL1        0.0510
      3 C         141.6306  144.2764  159.9861 C.2     1  UNL1       -0.0044
      4 C         142.4126  143.1186  159.4401 C.2     1  UNL1        0.0689
      5 N         143.0884  142.4323  160.5900 N.2     1  UNL1       -0.2526
      6 C         142.7241  143.1659  161.8466 C.2     1  UNL1        0.0627
      7 C         143.0964  142.9433  163.2825 C.3     1  UNL1        0.0717
      8 C         142.5677  143.8604  164.3452 C.2     1  UNL1       -0.0198
      9 C         141.6667  145.0001  163.9720 C.2     1  UNL1       -0.0042
     10 C         141.2944  145.2227  162.5361 C.2     1  UNL1        0.0006
     11 C         141.8231  144.3056  161.4734 C.2     1  UNL1        0.0111
     12 C         142.4082  142.8390  157.9664 C.3     1  UNL1        0.0949
     13 N         141.6218  143.7170  157.0387 N.3     1  UNL1       -0.2887
     14 H         140.9562  143.1136  156.5557 H       1  UNL1        0.1239
     15 C         139.3035  147.6766  155.3814 C.ar    1  UNL1        0.0784
     16 C         138.3833  146.5317  155.0776 C.ar    1  UNL1        0.1172
     17 N         138.8468  145.3427  155.8660 N.ar    1  UNL1       -0.2282
     18 C         140.0534  145.7529  156.6570 C.ar    1  UNL1        0.1318
     19 N         140.3357  147.1953  156.3575 N.ar    1  UNL1       -0.3396
     20 H         141.0696  147.7319  156.7353 H       1  UNL1        0.1671
     21 C         138.5550  151.5613  155.0675 C.ar    1  UNL1        0.0207
     22 C         139.0177  151.8268  153.6656 C.ar    1  UNL1        0.0989
     23 N         139.5757  150.7089  152.8356 N.ar    1  UNL1       -0.2423
     24 C         139.6709  149.3256  153.4075 C.ar    1  UNL1        0.1003
     25 C         139.2082  149.0601  154.8095 C.ar    1  UNL1        0.0363
     26 C         138.6503  150.1780  155.6394 C.ar    1  UNL1        0.0046
     27 C         143.1902  141.6812  157.4204 C.3     1  UNL1        0.0252
     28 C         142.5487  140.3303  157.3058 C.3     1  UNL1        0.0339
     29 C         143.3308  139.1725  156.7597 C.3     1  UNL1        0.1422
     30 O         144.7543  139.3658  156.3283 O.3     1  UNL1       -0.3538
     31 C         145.3958  140.7169  156.4429 C.3     1  UNL1        0.1422
     32 C         144.6138  141.8745  156.9889 C.3     1  UNL1        0.0339
@<TRIPOS>BOND
     1    21    22   ar
     2    22    23   ar
     3    23    24   ar
     4    24    25   ar
     5    25    15    1
     6    15    16   ar
     7    16    17   ar
     8    17    18   ar
     9     1    18    1
    10     1     2    1
    11     2     3    1
    12     3     4    2
    13     4     5    1
    14     5     6    2
    15     6     7    1
    16     7     8    1
    17     8     9    2
    18     9    10    1
    19    10    11    2
    20     4    12    1
    21    12    27    1
    22    27    28    1
    23    28    29    1
    24    29    30    1
    25    30    31    1
    26    31    32    1
    27    12    13    1
    28    18    19   ar
    29    25    26   ar
    30    26    21   ar
    31    19    15   ar
    32    13     1    1
    33    11     3    1
    34    32    27    1
    35    11     6    1
    36    13    14    1
    37    19    20    1
@<TRIPOS>MOLECULE
*****
 32 37 0 0 0
SMALL
GASTEIGER

@<TRIPOS>ATOM
      1 C         140.0930  144.5496  158.4770 C.3     1  UNL1        0.1161
      2 C         139.1328  143.4509  158.1296 C.3     1  UNL1        0.0510
      3 C         138.3970  143.4831  156.8229 C.2     1  UNL1       -0.0044
      4 C         138.6215  144.6141  155.8635 C.2     1  UNL1        0.0689
      5 N         137.7596  144.3780  154.6588 N.2     1  UNL1       -0.2526
      6 C         137.0024  143.1011  154.8736 C.2     1  UNL1        0.0627
      7 C         136.0051  142.3705  154.0241 C.3     1  UNL1        0.0717
      8 C         135.4018  141.0869  154.5122 C.2     1  UNL1       -0.0198
      9 C         135.7957  140.5338  155.8497 C.2     1  UNL1       -0.0042
     10 C         136.7930  141.2644  156.6992 C.2     1  UNL1        0.0006
     11 C         137.3964  142.5480  156.2111 C.2     1  UNL1        0.0111
     12 C         139.5818  145.7129  156.2109 C.3     1  UNL1        0.0949
     13 N         140.3176  145.6806  157.5176 N.3     1  UNL1       -0.2887
     14 H         140.0761  146.5391  158.0128 H       1  UNL1        0.1239
     15 C         142.3729  143.8912  161.5485 C.ar    1  UNL1        0.0784
     16 C         141.5491  145.0440  162.0408 C.ar    1  UNL1        0.1172
     17 N         140.5948  145.4310  160.9502 N.ar    1  UNL1       -0.2282
     18 C         140.8288  144.5173  159.7838 C.ar    1  UNL1        0.1318
     19 N         141.9277  143.5657  160.1535 N.ar    1  UNL1       -0.3396
     20 H         142.2927  142.8527  159.5812 H       1  UNL1        0.1671
     21 C         144.5633  142.5667  164.5813 C.ar    1  UNL1        0.0207
     22 C         145.6114  141.7799  163.8517 C.ar    1  UNL1        0.0989
     23 N         145.5800  141.6968  162.3544 N.ar    1  UNL1       -0.2423
     24 C         144.5006  142.4006  161.5867 C.ar    1  UNL1        0.1003
     25 C         143.4524  143.1874  162.3163 C.ar    1  UNL1        0.0363
     26 C         143.4838  143.2705  163.8136 C.ar    1  UNL1        0.0046
     27 C         139.8063  146.8439  155.2515 C.3     1  UNL1        0.0252
     28 C         140.6581  146.6370  154.0344 C.3     1  UNL1        0.0339
     29 C         140.8826  147.7681  153.0750 C.3     1  UNL1        0.1422
     30 O         140.2553  149.1060  153.3329 O.3     1  UNL1       -0.3538
     31 C         139.4035  149.3129  154.5501 C.3     1  UNL1        0.1422
     32 C         139.1790  148.1819  155.5094 C.3     1  UNL1        0.0339
@<TRIPOS>BOND
     1    21    22   ar
     2    22    23   ar
     3    23    24   ar
     4    24    25   ar
     5    25    15    1
     6    15    16   ar
     7    16    17   ar
     8    17    18   ar
     9     1    18    1
    10     1     2    1
    11     2     3    1
    12     3     4    2
    13     4     5    1
    14     5     6    2
    15     6     7    1
    16     7     8    1
    17     8     9    2
    18     9    10    1
    19    10    11    2
    20     4    12    1
    21    12    27    1
    22    27    28    1
    23    28    29    1
    24    29    30    1
    25    30    31    1
    26    31    32    1
    27    12    13    1
    28    18    19   ar
    29    25    26   ar
    30    26    21   ar
    31    19    15   ar
    32    13     1    1
    33    11     3    1
    34    32    27    1
    35    11     6    1
    36    13    14    1
    37    19    20    1
@<TRIPOS>MOLECULE
*****
 32 37 0 0 0
SMALL
GASTEIGER

@<TRIPOS>ATOM
      1 C         141.6601  139.6109  160.8534 C.3     1  UNL1        0.1161
      2 C         142.1637  139.0472  162.1491 C.3     1  UNL1        0.0510
      3 C         141.9891  139.8212  163.4220 C.2     1  UNL1       -0.0044
      4 C         141.3109  141.1589  163.3993 C.2     1  UNL1        0.0689
      5 N         141.2820  141.6877  164.8027 N.2     1  UNL1       -0.2526
      6 C         141.9423  140.6769  165.6927 C.2     1  UNL1        0.0627
      7 C         142.2021  140.6578  167.1699 C.3     1  UNL1        0.0717
      8 C         142.8989  139.4852  167.7937 C.2     1  UNL1       -0.0198
      9 C         143.3360  138.3315  166.9404 C.2     1  UNL1       -0.0042
     10 C         143.0762  138.3506  165.4632 C.2     1  UNL1        0.0006
     11 C         142.3794  139.5232  164.8394 C.2     1  UNL1        0.0111
     12 C         140.8073  141.7226  162.1037 C.3     1  UNL1        0.0949
     13 N         140.9819  140.9486  160.8307 N.3     1  UNL1       -0.2887
     14 H         141.5195  141.5406  160.1975 H       1  UNL1        0.1239
     15 C         141.4200  137.8588  157.3983 C.ar    1  UNL1        0.0784
     16 C         142.7870  137.4325  157.8450 C.ar    1  UNL1        0.1172
     17 N         143.0433  138.0369  159.1937 N.ar    1  UNL1       -0.2282
     18 C         141.8348  138.8368  159.5804 C.ar    1  UNL1        0.1318
     19 N         140.8315  138.7267  158.4709 N.ar    1  UNL1       -0.3396
     20 H         139.9428  139.1498  158.4502 H       1  UNL1        0.1671
     21 C         138.6160  137.2907  154.6479 C.ar    1  UNL1        0.0207
     22 C         139.4333  136.7320  153.5210 C.ar    1  UNL1        0.0989
     23 N         140.9128  136.5488  153.6866 N.ar    1  UNL1       -0.2423
     24 C         141.5750  136.9244  154.9790 C.ar    1  UNL1        0.1003
     25 C         140.7577  137.4832  156.1058 C.ar    1  UNL1        0.0363
     26 C         139.2782  137.6663  155.9403 C.ar    1  UNL1        0.0046
     27 C         140.1290  143.0603  162.0810 C.3     1  UNL1        0.0252
     28 C         140.7459  144.2012  161.3277 C.3     1  UNL1        0.0339
     29 C         140.0676  145.5390  161.3050 C.3     1  UNL1        0.1422
     30 O         138.7725  145.7357  162.0356 O.3     1  UNL1       -0.3538
     31 C         138.1556  144.5946  162.7890 C.3     1  UNL1        0.1422
     32 C         138.8338  143.2570  162.8116 C.3     1  UNL1        0.0339
@<TRIPOS>BOND
     1    21    22   ar
     2    22    23   ar
     3    23    24   ar
     4    24    25   ar
     5    25    15    1
     6    15    16   ar
     7    16    17   ar
     8    17    18   ar
     9     1    18    1
    10     1     2    1
    11     2     3    1
    12     3     4    2
    13     4     5    1
    14     5     6    2
    15     6     7    1
    16     7     8    1
    17     8     9    2
    18     9    10    1
    19    10    11    2
    20     4    12    1
    21    12    27    1
    22    27    28    1
    23    28    29    1
    24    29    30    1
    25    30    31    1
    26    31    32    1
    27    12    13    1
    28    18    19   ar
    29    25    26   ar
    30    26    21   ar
    31    19    15   ar
    32    13     1    1
    33    11     3    1
    34    32    27    1
    35    11     6    1
    36    13    14    1
    37    19    20    1
@<TRIPOS>MOLECULE
*****
 32 37 0 0 0
SMALL
GASTEIGER

@<TRIPOS>ATOM
      1 C         142.4971  138.4592  158.3366 C.3     1  UNL1        0.1161
      2 C         142.4462  139.9314  158.0536 C.3     1  UNL1        0.0510
      3 C         141.9067  140.8755  159.0868 C.2     1  UNL1       -0.0044
      4 C         141.4180  140.3475  160.4030 C.2     1  UNL1        0.0689
      5 N         140.9428  141.5111  161.2216 N.2     1  UNL1       -0.2526
      6 C         141.1378  142.7583  160.4114 C.2     1  UNL1        0.0627
      7 C         140.8498  144.2009  160.7045 C.3     1  UNL1        0.0717
      8 C         141.1576  145.2507  159.6783 C.2     1  UNL1       -0.0198
      9 C         141.7533  144.8579  158.3589 C.2     1  UNL1       -0.0042
     10 C         142.0412  143.4153  158.0657 C.2     1  UNL1        0.0006
     11 C         141.7335  142.3655  159.0919 C.2     1  UNL1        0.0111
     12 C         141.4689  138.8753  160.6860 C.3     1  UNL1        0.0949
     13 N         142.0085  137.9311  159.6528 N.3     1  UNL1       -0.2887
     14 H         141.2642  137.2654  159.4450 H       1  UNL1        0.1239
     15 C         143.4875  135.4983  156.0306 C.ar    1  UNL1        0.0784
     16 C         144.2465  136.6261  155.3964 C.ar    1  UNL1        0.1172
     17 N         143.9678  137.8725  156.1830 N.ar    1  UNL1       -0.2282
     18 C         143.0367  137.5151  157.3034 C.ar    1  UNL1        0.1318
     19 N         142.7399  136.0478  157.2092 N.ar    1  UNL1       -0.3396
     20 H         142.1567  135.5353  157.8147 H       1  UNL1        0.1671
     21 C         142.7132  132.2635  153.8658 C.ar    1  UNL1        0.0207
     22 C         143.4588  131.2182  154.6415 C.ar    1  UNL1        0.0989
     23 N         144.2139  131.5996  155.8801 N.ar    1  UNL1       -0.2423
     24 C         144.2235  133.0263  156.3431 C.ar    1  UNL1        0.1003
     25 C         143.4779  134.0716  155.5675 C.ar    1  UNL1        0.0363
     26 C         142.7228  133.6902  154.3289 C.ar    1  UNL1        0.0046
     27 C         140.9803  138.3472  162.0022 C.3     1  UNL1        0.0252
     28 C         141.9640  137.9301  163.0548 C.3     1  UNL1        0.0339
     29 C         141.4753  137.4020  164.3710 C.3     1  UNL1        0.1422
     30 O         140.0028  137.2911  164.6345 O.3     1  UNL1       -0.3538
     31 C         139.0190  137.7082  163.5818 C.3     1  UNL1        0.1422
     32 C         139.5077  138.2363  162.2657 C.3     1  UNL1        0.0339
@<TRIPOS>BOND
     1    21    22   ar
     2    22    23   ar
     3    23    24   ar
     4    24    25   ar
     5    25    15    1
     6    15    16   ar
     7    16    17   ar
     8    17    18   ar
     9     1    18    1
    10     1     2    1
    11     2     3    1
    12     3     4    2
    13     4     5    1
    14     5     6    2
    15     6     7    1
    16     7     8    1
    17     8     9    2
    18     9    10    1
    19    10    11    2
    20     4    12    1
    21    12    27    1
    22    27    28    1
    23    28    29    1
    24    29    30    1
    25    30    31    1
    26    31    32    1
    27    12    13    1
    28    18    19   ar
    29    25    26   ar
    30    26    21   ar
    31    19    15   ar
    32    13     1    1
    33    11     3    1
    34    32    27    1
    35    11     6    1
    36    13    14    1
    37    19    20    1
