@<TRIPOS>MOLECULE
*****
 36 40 0 0 0
SMALL
GASTEIGER

@<TRIPOS>ATOM
      1 C         139.2817  138.3220  165.1941 C.3     1  UNL1        0.0545
      2 C         138.4103  138.7429  166.3402 C.3     1  UNL1        0.0163
      3 C         139.2648  139.4866  167.3234 C.3     1  UNL1        0.0120
      4 C         139.2544  140.2063  168.6394 C.3     1  UNL1        0.0301
      5 C         140.6474  140.6899  168.9143 C.3     1  UNL1        0.1158
      6 C         141.5188  140.2690  167.7683 C.3     1  UNL1        0.0382
      7 C         140.6644  139.5253  166.7850 C.3     1  UNL1        0.0728
      8 C         140.6748  138.8055  165.4690 C.3     1  UNL1        0.0244
      9 C         142.0638  139.5640  166.2466 C.2     1  UNL1        0.2251
     10 O         143.0747  138.5584  166.7123 O.2     1  UNL1       -0.2749
     11 N         142.4525  140.6084  165.2424 N.am    1  UNL1       -0.2750
     12 C         143.8520  140.6471  164.7040 C.3     1  UNL1        0.1000
     13 C         144.2406  141.6914  163.6999 C.3     1  UNL1        0.0670
     14 C         143.2297  142.6970  163.2342 C.ar    1  UNL1        0.0583
     15 N         143.6184  143.7414  162.2300 N.ar    1  UNL1       -0.2484
     16 C         142.6075  144.7470  161.7643 C.ar    1  UNL1        0.1023
     17 C         141.2080  144.7082  162.3027 C.ar    1  UNL1        0.0902
     18 C         140.8194  143.6639  163.3069 C.ar    1  UNL1        0.0040
     19 C         141.8302  142.6583  163.7726 C.ar    1  UNL1        0.0113
     20 C         141.4416  141.6140  164.7767 C.3     1  UNL1        0.1213
     21 C         140.1971  145.7139  161.8370 C.3     1  UNL1        0.4200
     22 F         139.1862  146.7195  161.3713 F       1  UNL1       -0.1658
     23 F         140.9229  145.8382  160.5302 F       1  UNL1       -0.1658
     24 F         139.4713  145.5895  163.1438 F       1  UNL1       -0.1658
     25 N         138.8380  137.5526  163.9853 N.3     1  UNL1       -0.2975
     26 H         139.4216  136.7174  163.9372 H       1  UNL1        0.1232
     27 C         140.1089  138.0470  161.7739 C.3     1  UNL1        0.1591
     28 C         140.1566  138.6872  160.4183 C.3     1  UNL1        0.1729
     29 O         138.9811  139.4733  159.9183 O.3     1  UNL1       -0.3511
     30 C         137.7577  139.6192  160.7740 C.3     1  UNL1        0.1437
     31 C         137.7100  138.9790  162.1297 C.3     1  UNL1        0.0503
     32 C         138.8857  138.1928  162.6296 C.3     1  UNL1        0.0865
     33 C         142.6080  137.9374  162.4757 C.3     1  UNL1        0.1742
     34 O         141.2845  137.2609  162.2739 O.3     1  UNL1       -0.3496
     35 O         141.0912  141.4593  170.1232 O.3     1  UNL1       -0.3536
     36 C         141.0856  142.9591  170.1013 C.3     1  UNL1        0.1740
@<TRIPOS>BOND
     1    33    34    1
     2    34    27    1
     3    27    28    1
     4    28    29    1
     5    29    30    1
     6    30    31    1
     7    31    32    1
     8    32    25    1
     9     1    25    1
    10     1     2    1
    11     3     2    1
    12     3     4    1
    13     4     5    1
    14     5    35    1
    15    35    36    1
    16     5     6    1
    17     6     7    1
    18     7     9    1
    19     9    10    2
    20     9    11   am
    21    11    12    1
    22    12    13    1
    23    13    14    1
    24    14    15   ar
    25    15    16   ar
    26    16    17   ar
    27    17    21    1
    28    21    22    1
    29    21    23    1
    30    21    24    1
    31    17    18   ar
    32    18    19   ar
    33    19    20    1
    34     7     8    1
    35    32    27    1
    36     8     1    1
    37     7     3    1
    38    20    11    1
    39    19    14   ar
    40    25    26    1
@<TRIPOS>MOLECULE
*****
 36 40 0 0 0
SMALL
GASTEIGER

@<TRIPOS>ATOM
      1 C         139.2266  138.9904  166.2085 C.3     1  UNL1        0.0545
      2 C         138.5536  139.4938  167.4509 C.3     1  UNL1        0.0163
      3 C         139.5999  140.1225  168.3226 C.3     1  UNL1        0.0120
      4 C         139.8307  140.8222  169.6292 C.3     1  UNL1        0.0301
      5 C         141.2931  141.1397  169.7330 C.3     1  UNL1        0.1158
      6 C         141.9661  140.6363  168.4906 C.3     1  UNL1        0.0382
      7 C         140.9197  140.0076  167.6189 C.3     1  UNL1        0.0728
      8 C         140.6889  139.3079  166.3124 C.3     1  UNL1        0.0244
      9 C         142.2394  139.8927  166.9152 C.2     1  UNL1        0.2251
     10 O         143.2488  138.8827  167.3745 O.2     1  UNL1       -0.2749
     11 N         142.5497  140.7879  165.7523 N.am    1  UNL1       -0.2750
     12 C         143.8694  140.6730  165.0486 C.3     1  UNL1        0.1000
     13 C         144.1796  141.5681  163.8857 C.3     1  UNL1        0.0670
     14 C         143.1702  142.5782  163.4264 C.ar    1  UNL1        0.0583
     15 N         143.4805  143.4733  162.2634 N.ar    1  UNL1       -0.2484
     16 C         142.4711  144.4834  161.8042 C.ar    1  UNL1        0.1023
     17 C         141.1514  144.5982  162.5080 C.ar    1  UNL1        0.0902
     18 C         140.8411  143.7031  163.6709 C.ar    1  UNL1        0.0040
     19 C         141.8505  142.6931  164.1301 C.ar    1  UNL1        0.0113
     20 C         141.5403  141.7979  165.2930 C.3     1  UNL1        0.1213
     21 C         140.1420  145.6083  162.0487 C.3     1  UNL1        0.4200
     22 F         139.1326  146.6183  161.5895 F       1  UNL1       -0.1658
     23 F         139.4145  145.4746  163.3537 F       1  UNL1       -0.1658
     24 F         140.8694  145.7419  160.7438 F       1  UNL1       -0.1658
     25 N         138.5551  138.2920  165.0633 N.3     1  UNL1       -0.2975
     26 H         138.7443  137.2959  165.1741 H       1  UNL1        0.1232
     27 C         138.5051  139.9720  163.0821 C.3     1  UNL1        0.1591
     28 C         138.8677  140.3272  161.6705 C.3     1  UNL1        0.1729
     29 O         139.6431  139.3575  160.8287 O.3     1  UNL1       -0.3511
     30 C         140.0558  138.0327  161.3984 C.3     1  UNL1        0.1437
     31 C         139.6931  137.6775  162.8099 C.3     1  UNL1        0.0503
     32 C         138.9178  138.6472  163.6518 C.3     1  UNL1        0.0865
     33 C         137.3963  142.3018  163.3865 C.3     1  UNL1        0.1742
     34 O         137.7298  140.9416  163.9239 O.3     1  UNL1       -0.3496
     35 O         141.9645  141.8381  170.8783 O.3     1  UNL1       -0.3536
     36 C         142.8463  143.0238  170.6206 C.3     1  UNL1        0.1740
@<TRIPOS>BOND
     1    33    34    1
     2    34    27    1
     3    27    28    1
     4    28    29    1
     5    29    30    1
     6    30    31    1
     7    31    32    1
     8    32    25    1
     9     1    25    1
    10     1     2    1
    11     3     2    1
    12     3     4    1
    13     4     5    1
    14     5    35    1
    15    35    36    1
    16     5     6    1
    17     6     7    1
    18     7     9    1
    19     9    10    2
    20     9    11   am
    21    11    12    1
    22    12    13    1
    23    13    14    1
    24    14    15   ar
    25    15    16   ar
    26    16    17   ar
    27    17    21    1
    28    21    22    1
    29    21    23    1
    30    21    24    1
    31    17    18   ar
    32    18    19   ar
    33    19    20    1
    34     7     8    1
    35    32    27    1
    36     8     1    1
    37     7     3    1
    38    20    11    1
    39    19    14   ar
    40    25    26    1
@<TRIPOS>MOLECULE
*****
 36 40 0 0 0
SMALL
GASTEIGER

@<TRIPOS>ATOM
      1 C         139.4132  139.6452  167.7523 C.3     1  UNL1        0.0545
      2 C         138.3960  138.9470  166.8992 C.3     1  UNL1        0.0163
      3 C         139.0735  138.5096  165.6343 C.3     1  UNL1        0.0120
      4 C         138.8635  137.8079  164.3254 C.3     1  UNL1        0.0301
      5 C         140.1696  137.8020  163.5878 C.3     1  UNL1        0.1158
      6 C         141.1868  138.5002  164.4409 C.3     1  UNL1        0.0382
      7 C         140.5094  138.9376  165.7057 C.3     1  UNL1        0.0728
      8 C         140.7194  139.6394  167.0147 C.3     1  UNL1        0.0244
      9 C         141.9453  139.3655  165.7771 C.2     1  UNL1        0.2251
     10 O         142.9530  138.4973  166.4705 O.2     1  UNL1       -0.2749
     11 N         142.3734  140.6616  165.1552 N.am    1  UNL1       -0.2750
     12 C         143.8093  141.0895  165.2266 C.3     1  UNL1        0.1000
     13 C         144.2374  142.3856  164.6046 C.3     1  UNL1        0.0670
     14 C         143.2297  143.2538  163.9113 C.ar    1  UNL1        0.0583
     15 N         143.6578  144.5499  163.2893 N.ar    1  UNL1       -0.2484
     16 C         142.6501  145.4181  162.5960 C.ar    1  UNL1        0.1023
     17 C         141.2142  144.9901  162.5246 C.ar    1  UNL1        0.0902
     18 C         140.7861  143.6940  163.1465 C.ar    1  UNL1        0.0040
     19 C         141.7938  142.8259  163.8399 C.ar    1  UNL1        0.0113
     20 C         141.3657  141.5298  164.4618 C.3     1  UNL1        0.1213
     21 C         140.2064  145.8583  161.8312 C.3     1  UNL1        0.4200
     22 F         139.1987  146.7264  161.1379 F       1  UNL1       -0.1658
     23 F         139.3578  145.8611  163.0681 F       1  UNL1       -0.1658
     24 F         141.0550  145.8555  160.5943 F       1  UNL1       -0.1658
     25 N         139.1675  140.2441  169.1054 N.3     1  UNL1       -0.2975
     26 H         138.2413  140.6704  169.0750 H       1  UNL1        0.1232
     27 C         141.2914  140.8680  170.4655 C.3     1  UNL1        0.1591
     28 C         142.2284  141.9064  171.0074 C.3     1  UNL1        0.1729
     29 O         141.9785  143.3594  170.7312 O.3     1  UNL1       -0.3511
     30 C         140.7916  143.7740  169.9130 C.3     1  UNL1        0.1437
     31 C         139.8546  142.7356  169.3711 C.3     1  UNL1        0.0503
     32 C         140.1045  141.2825  169.6474 C.3     1  UNL1        0.0865
     33 C         142.6406  138.6927  170.0207 C.3     1  UNL1        0.1742
     34 O         141.5413  139.4150  170.7417 O.3     1  UNL1       -0.3496
     35 O         140.4154  137.2031  162.2346 O.3     1  UNL1       -0.3536
     36 C         141.2552  137.9364  161.2312 C.3     1  UNL1        0.1740
@<TRIPOS>BOND
     1    33    34    1
     2    34    27    1
     3    27    28    1
     4    28    29    1
     5    29    30    1
     6    30    31    1
     7    31    32    1
     8    32    25    1
     9     1    25    1
    10     1     2    1
    11     3     2    1
    12     3     4    1
    13     4     5    1
    14     5    35    1
    15    35    36    1
    16     5     6    1
    17     6     7    1
    18     7     9    1
    19     9    10    2
    20     9    11   am
    21    11    12    1
    22    12    13    1
    23    13    14    1
    24    14    15   ar
    25    15    16   ar
    26    16    17   ar
    27    17    21    1
    28    21    22    1
    29    21    23    1
    30    21    24    1
    31    17    18   ar
    32    18    19   ar
    33    19    20    1
    34     7     8    1
    35    32    27    1
    36     8     1    1
    37     7     3    1
    38    20    11    1
    39    19    14   ar
    40    25    26    1
@<TRIPOS>MOLECULE
*****
 36 40 0 0 0
SMALL
GASTEIGER

@<TRIPOS>ATOM
      1 C         140.6002  137.6258  163.9830 C.3     1  UNL1        0.0545
      2 C         139.2039  137.5460  164.5251 C.3     1  UNL1        0.0163
      3 C         139.1538  138.3421  165.7955 C.3     1  UNL1        0.0120
      4 C         138.2599  138.7848  166.9157 C.3     1  UNL1        0.0301
      5 C         139.0727  139.6302  167.8510 C.3     1  UNL1        0.1158
      6 C         140.4690  139.7099  167.3088 C.3     1  UNL1        0.0382
      7 C         140.5191  138.9139  166.0384 C.3     1  UNL1        0.0728
      8 C         141.4130  138.4712  164.9182 C.3     1  UNL1        0.0244
      9 C         141.8844  139.4856  166.2813 C.2     1  UNL1        0.2251
     10 O         142.8847  138.7190  167.0947 O.2     1  UNL1       -0.2749
     11 N         142.2494  140.8241  165.7108 N.am    1  UNL1       -0.2750
     12 C         143.6147  141.3958  165.9537 C.3     1  UNL1        0.1000
     13 C         143.9797  142.7342  165.3832 C.3     1  UNL1        0.0670
     14 C         142.9793  143.5008  164.5698 C.ar    1  UNL1        0.0583
     15 N         143.3444  144.8393  163.9993 N.ar    1  UNL1       -0.2484
     16 C         142.3440  145.6059  163.1859 C.ar    1  UNL1        0.1023
     17 C         140.9787  145.0341  162.9430 C.ar    1  UNL1        0.0902
     18 C         140.6137  143.6957  163.5135 C.ar    1  UNL1        0.0040
     19 C         141.6141  142.9291  164.3269 C.ar    1  UNL1        0.0113
     20 C         141.2491  141.5907  164.8974 C.3     1  UNL1        0.1213
     21 C         139.9784  145.8007  162.1296 C.3     1  UNL1        0.4200
     22 F         138.9780  146.5673  161.3162 F       1  UNL1       -0.1658
     23 F         138.9806  145.6802  163.2431 F       1  UNL1       -0.1658
     24 F         140.9761  145.9212  161.0161 F       1  UNL1       -0.1658
     25 N         141.0966  136.9746  162.7261 N.3     1  UNL1       -0.2975
     26 H         141.7873  136.2789  163.0080 H       1  UNL1        0.1232
     27 C         140.8848  138.4186  160.5768 C.3     1  UNL1        0.1591
     28 C         141.5208  139.2497  159.5022 C.3     1  UNL1        0.1729
     29 O         143.0048  139.4679  159.5025 O.3     1  UNL1       -0.3511
     30 C         143.8529  138.8549  160.5773 C.3     1  UNL1        0.1437
     31 C         143.2168  138.0238  161.6519 C.3     1  UNL1        0.0503
     32 C         141.7327  137.8057  161.6516 C.3     1  UNL1        0.0865
     33 C         138.4857  139.2675  161.1002 C.3     1  UNL1        0.1742
     34 O         139.4007  138.2004  160.5765 O.3     1  UNL1       -0.3496
     35 O         138.5763  140.2814  169.1078 O.3     1  UNL1       -0.3536
     36 C         139.5152  141.0862  169.9567 C.3     1  UNL1        0.1740
@<TRIPOS>BOND
     1    33    34    1
     2    34    27    1
     3    27    28    1
     4    28    29    1
     5    29    30    1
     6    30    31    1
     7    31    32    1
     8    32    25    1
     9     1    25    1
    10     1     2    1
    11     3     2    1
    12     3     4    1
    13     4     5    1
    14     5    35    1
    15    35    36    1
    16     5     6    1
    17     6     7    1
    18     7     9    1
    19     9    10    2
    20     9    11   am
    21    11    12    1
    22    12    13    1
    23    13    14    1
    24    14    15   ar
    25    15    16   ar
    26    16    17   ar
    27    17    21    1
    28    21    22    1
    29    21    23    1
    30    21    24    1
    31    17    18   ar
    32    18    19   ar
    33    19    20    1
    34     7     8    1
    35    32    27    1
    36     8     1    1
    37     7     3    1
    38    20    11    1
    39    19    14   ar
    40    25    26    1
@<TRIPOS>MOLECULE
*****
 36 40 0 0 0
SMALL
GASTEIGER

@<TRIPOS>ATOM
      1 C         144.1688  139.4819  164.7891 C.3     1  UNL1        0.0545
      2 C         143.7381  138.6005  165.9239 C.3     1  UNL1        0.0163
      3 C         143.0505  139.4599  166.9431 C.3     1  UNL1        0.0120
      4 C         142.3594  139.4464  168.2743 C.3     1  UNL1        0.0301
      5 C         141.9380  140.8505  168.5921 C.3     1  UNL1        0.1158
      6 C         142.3688  141.7318  167.4574 C.3     1  UNL1        0.0382
      7 C         143.0563  140.8724  166.4382 C.3     1  UNL1        0.0728
      8 C         143.7475  140.8860  165.1070 C.3     1  UNL1        0.0244
      9 C         143.0621  142.2849  165.9333 C.2     1  UNL1        0.2251
     10 O         143.9849  143.2965  166.5458 O.2     1  UNL1       -0.2749
     11 N         142.1452  142.6857  164.8159 N.am    1  UNL1       -0.2750
     12 C         142.1510  144.0982  164.3110 C.3     1  UNL1        0.1000
     13 C         141.2341  144.4989  163.1936 C.3     1  UNL1        0.0670
     14 C         140.3114  143.4873  162.5811 C.ar    1  UNL1        0.0583
     15 N         139.3944  143.8882  161.4637 N.ar    1  UNL1       -0.2484
     16 C         138.4717  142.8765  160.8512 C.ar    1  UNL1        0.1023
     17 C         138.4659  141.4640  161.3561 C.ar    1  UNL1        0.0902
     18 C         139.3828  141.0632  162.4735 C.ar    1  UNL1        0.0040
     19 C         140.3055  142.0749  163.0860 C.ar    1  UNL1        0.0113
     20 C         141.2225  141.6741  164.2034 C.3     1  UNL1        0.1213
     21 C         137.5431  140.4524  160.7436 C.3     1  UNL1        0.4200
     22 F         136.6204  139.4408  160.1312 F       1  UNL1       -0.1658
     23 F         137.3188  139.8394  162.0941 F       1  UNL1       -0.1658
     24 F         137.7675  141.0654  159.3931 F       1  UNL1       -0.1658
     25 N         144.8937  139.0372  163.5534 N.3     1  UNL1       -0.2975
     26 H         145.7337  139.6114  163.4821 H       1  UNL1        0.1232
     27 C         144.3469  140.3267  161.3653 C.3     1  UNL1        0.1591
     28 C         143.6640  140.3908  160.0313 C.3     1  UNL1        0.1729
     29 O         142.8451  139.2294  159.5514 O.3     1  UNL1       -0.3511
     30 C         142.7090  138.0038  160.4055 C.3     1  UNL1        0.1437
     31 C         143.3918  137.9397  161.7396 C.3     1  UNL1        0.0503
     32 C         144.2108  139.1013  162.2194 C.3     1  UNL1        0.0865
     33 C         144.5534  142.8551  161.9265 C.3     1  UNL1        0.1742
     34 O         145.1659  141.4882  161.8451 O.3     1  UNL1       -0.3496
     35 O         141.2131  141.2951  169.8278 O.3     1  UNL1       -0.3536
     36 C         141.8018  141.0249  171.1808 C.3     1  UNL1        0.1740
@<TRIPOS>BOND
     1    33    34    1
     2    34    27    1
     3    27    28    1
     4    28    29    1
     5    29    30    1
     6    30    31    1
     7    31    32    1
     8    32    25    1
     9     1    25    1
    10     1     2    1
    11     3     2    1
    12     3     4    1
    13     4     5    1
    14     5    35    1
    15    35    36    1
    16     5     6    1
    17     6     7    1
    18     7     9    1
    19     9    10    2
    20     9    11   am
    21    11    12    1
    22    12    13    1
    23    13    14    1
    24    14    15   ar
    25    15    16   ar
    26    16    17   ar
    27    17    21    1
    28    21    22    1
    29    21    23    1
    30    21    24    1
    31    17    18   ar
    32    18    19   ar
    33    19    20    1
    34     7     8    1
    35    32    27    1
    36     8     1    1
    37     7     3    1
    38    20    11    1
    39    19    14   ar
    40    25    26    1
@<TRIPOS>MOLECULE
*****
 36 40 0 0 0
SMALL
GASTEIGER

@<TRIPOS>ATOM
      1 C         139.0811  142.8674  165.3749 C.3     1  UNL1        0.0545
      2 C         140.0415  143.5775  166.2823 C.3     1  UNL1        0.0163
      3 C         140.7869  142.5415  167.0703 C.3     1  UNL1        0.0120
      4 C         141.8411  142.3401  168.1182 C.3     1  UNL1        0.0301
      5 C         141.9930  140.8652  168.3454 C.3     1  UNL1        0.1158
      6 C         141.0327  140.1551  167.4380 C.3     1  UNL1        0.0382
      7 C         140.2872  141.1911  166.6500 C.3     1  UNL1        0.0728
      8 C         139.2330  141.3925  165.6021 C.3     1  UNL1        0.0244
      9 C         139.7875  139.8407  166.2296 C.2     1  UNL1        0.2251
     10 O         138.8746  139.0645  167.1319 O.2     1  UNL1       -0.2749
     11 N         140.2008  139.2664  164.9069 N.am    1  UNL1       -0.2750
     12 C         139.7012  137.9160  164.4866 C.3     1  UNL1        0.1000
     13 C         140.1144  137.3418  163.1639 C.3     1  UNL1        0.0670
     14 C         141.0274  138.1179  162.2617 C.ar    1  UNL1        0.0583
     15 N         141.4407  137.5436  160.9390 N.ar    1  UNL1       -0.2484
     16 C         142.3537  138.3198  160.0367 C.ar    1  UNL1        0.1023
     17 C         142.8534  139.6702  160.4571 C.ar    1  UNL1        0.0902
     18 C         142.4401  140.2444  161.7798 C.ar    1  UNL1        0.0040
     19 C         141.5271  139.4683  162.6820 C.ar    1  UNL1        0.0113
     20 C         141.1138  140.0425  164.0047 C.3     1  UNL1        0.1213
     21 C         143.7663  140.4463  159.5549 C.3     1  UNL1        0.4200
     22 F         144.6793  141.2225  158.6526 F       1  UNL1       -0.1658
     23 F         143.0856  139.8541  158.3566 F       1  UNL1       -0.1658
     24 F         144.4471  141.0386  160.7531 F       1  UNL1       -0.1658
     25 N         138.1349  143.5179  164.4096 N.3     1  UNL1       -0.2975
     26 H         137.2742  142.9709  164.4271 H       1  UNL1        0.1232
     27 C         138.0599  142.6641  161.9570 C.3     1  UNL1        0.1591
     28 C         138.4465  142.8172  160.5158 C.3     1  UNL1        0.1729
     29 O         139.2946  143.9773  160.0860 O.3     1  UNL1       -0.3511
     30 C         139.7562  144.9844  161.0973 C.3     1  UNL1        0.1437
     31 C         139.3696  144.8312  162.5386 C.3     1  UNL1        0.0503
     32 C         138.5215  143.6711  162.9684 C.3     1  UNL1        0.0865
     33 C         137.7347  140.1040  162.2574 C.3     1  UNL1        0.1742
     34 O         137.2118  141.5040  162.3869 O.3     1  UNL1       -0.3496
     35 O         142.9392  140.2146  169.3107 O.3     1  UNL1       -0.3536
     36 C         142.5771  138.9069  169.9498 C.3     1  UNL1        0.1740
@<TRIPOS>BOND
     1    33    34    1
     2    34    27    1
     3    27    28    1
     4    28    29    1
     5    29    30    1
     6    30    31    1
     7    31    32    1
     8    32    25    1
     9     1    25    1
    10     1     2    1
    11     3     2    1
    12     3     4    1
    13     4     5    1
    14     5    35    1
    15    35    36    1
    16     5     6    1
    17     6     7    1
    18     7     9    1
    19     9    10    2
    20     9    11   am
    21    11    12    1
    22    12    13    1
    23    13    14    1
    24    14    15   ar
    25    15    16   ar
    26    16    17   ar
    27    17    21    1
    28    21    22    1
    29    21    23    1
    30    21    24    1
    31    17    18   ar
    32    18    19   ar
    33    19    20    1
    34     7     8    1
    35    32    27    1
    36     8     1    1
    37     7     3    1
    38    20    11    1
    39    19    14   ar
    40    25    26    1
@<TRIPOS>MOLECULE
*****
 36 40 0 0 0
SMALL
GASTEIGER

@<TRIPOS>ATOM
      1 C         141.8539  138.0949  164.7439 C.3     1  UNL1        0.0545
      2 C         142.9247  138.3690  165.7578 C.3     1  UNL1        0.0163
      3 C         142.3545  139.2874  166.7976 C.3     1  UNL1        0.0120
      4 C         142.6638  140.0244  168.0669 C.3     1  UNL1        0.0301
      5 C         141.4317  140.7735  168.4801 C.3     1  UNL1        0.1158
      6 C         140.3608  140.4994  167.4662 C.3     1  UNL1        0.0382
      7 C         140.9311  139.5810  166.4263 C.3     1  UNL1        0.0728
      8 C         140.6217  138.8440  165.1571 C.3     1  UNL1        0.0244
      9 C         139.5077  139.8746  166.0550 C.2     1  UNL1        0.2251
     10 O         138.3897  139.3982  166.9343 O.2     1  UNL1       -0.2749
     11 N         139.2024  140.6445  164.8044 N.am    1  UNL1       -0.2750
     12 C         137.7791  140.9381  164.4331 C.3     1  UNL1        0.1000
     13 C         137.4738  141.7080  163.1825 C.3     1  UNL1        0.0670
     14 C         138.5918  142.1843  162.3032 C.ar    1  UNL1        0.0583
     15 N         138.2864  142.9543  161.0526 N.ar    1  UNL1       -0.2484
     16 C         139.4045  143.4306  160.1733 C.ar    1  UNL1        0.1023
     17 C         140.8278  143.1370  160.5447 C.ar    1  UNL1        0.0902
     18 C         141.1331  142.3671  161.7953 C.ar    1  UNL1        0.0040
     19 C         140.0151  141.8908  162.6746 C.ar    1  UNL1        0.0113
     20 C         140.3204  141.1209  163.9251 C.3     1  UNL1        0.1213
     21 C         141.9459  143.6134  159.6654 C.3     1  UNL1        0.4200
     22 F         143.0639  144.0897  158.7862 F       1  UNL1       -0.1658
     23 F         142.2742  142.1927  159.3133 F       1  UNL1       -0.1658
     24 F         141.6176  145.0340  160.0176 F       1  UNL1       -0.1658
     25 N         141.9910  137.2246  163.5298 N.3     1  UNL1       -0.2975
     26 H         142.7853  136.6072  163.6983 H       1  UNL1        0.1232
     27 C         141.0384  138.0636  161.2630 C.3     1  UNL1        0.1591
     28 C         141.2516  138.6854  159.9147 C.3     1  UNL1        0.1729
     29 O         142.6306  139.0899  159.4849 O.3     1  UNL1       -0.3511
     30 C         143.7965  138.8726  160.4034 C.3     1  UNL1        0.1437
     31 C         143.5833  138.2509  161.7517 C.3     1  UNL1        0.0503
     32 C         142.2042  137.8463  162.1815 C.3     1  UNL1        0.0865
     33 C         138.4935  138.5625  161.4196 C.3     1  UNL1        0.1742
     34 O         139.6595  137.6591  161.6928 O.3     1  UNL1       -0.3496
     35 O         141.2945  141.6438  169.6941 O.3     1  UNL1       -0.3536
     36 C         141.2954  141.0285  171.0621 C.3     1  UNL1        0.1740
@<TRIPOS>BOND
     1    33    34    1
     2    34    27    1
     3    27    28    1
     4    28    29    1
     5    29    30    1
     6    30    31    1
     7    31    32    1
     8    32    25    1
     9     1    25    1
    10     1     2    1
    11     3     2    1
    12     3     4    1
    13     4     5    1
    14     5    35    1
    15    35    36    1
    16     5     6    1
    17     6     7    1
    18     7     9    1
    19     9    10    2
    20     9    11   am
    21    11    12    1
    22    12    13    1
    23    13    14    1
    24    14    15   ar
    25    15    16   ar
    26    16    17   ar
    27    17    21    1
    28    21    22    1
    29    21    23    1
    30    21    24    1
    31    17    18   ar
    32    18    19   ar
    33    19    20    1
    34     7     8    1
    35    32    27    1
    36     8     1    1
    37     7     3    1
    38    20    11    1
    39    19    14   ar
    40    25    26    1
@<TRIPOS>MOLECULE
*****
 36 40 0 0 0
SMALL
GASTEIGER

@<TRIPOS>ATOM
      1 C         139.4026  139.9762  165.0789 C.3     1  UNL1        0.0545
      2 C         140.3606  139.2652  165.9881 C.3     1  UNL1        0.0163
      3 C         141.2554  140.2934  166.6141 C.3     1  UNL1        0.0120
      4 C         142.4005  140.4896  167.5629 C.3     1  UNL1        0.0301
      5 C         142.7032  141.9573  167.6270 C.3     1  UNL1        0.1158
      6 C         141.7452  142.6683  166.7179 C.3     1  UNL1        0.0382
      7 C         140.8504  141.6400  166.0918 C.3     1  UNL1        0.0728
      8 C         139.7053  141.4439  165.1430 C.3     1  UNL1        0.0244
      9 C         140.4454  142.9866  165.5696 C.2     1  UNL1        0.2251
     10 O         139.6467  143.9169  166.4336 O.2     1  UNL1       -0.2749
     11 N         140.8391  143.4028  164.1832 N.am    1  UNL1       -0.2750
     12 C         140.4340  144.7493  163.6609 C.3     1  UNL1        0.1000
     13 C         140.8277  145.1654  162.2747 C.3     1  UNL1        0.0670
     14 C         141.6264  144.2350  161.4107 C.ar    1  UNL1        0.0583
     15 N         142.0201  144.6512  160.0243 N.ar    1  UNL1       -0.2484
     16 C         142.8187  143.7208  159.1603 C.ar    1  UNL1        0.1023
     17 C         143.2237  142.3743  159.6826 C.ar    1  UNL1        0.0902
     18 C         142.8301  141.9581  161.0689 C.ar    1  UNL1        0.0040
     19 C         142.0314  142.8885  161.9329 C.ar    1  UNL1        0.0113
     20 C         141.6377  142.4724  163.3192 C.3     1  UNL1        0.1213
     21 C         144.0224  141.4439  158.8186 C.3     1  UNL1        0.4200
     22 F         144.8211  140.5135  157.9546 F       1  UNL1       -0.1658
     23 F         144.1753  142.5276  157.7929 F       1  UNL1       -0.1658
     24 F         143.8696  140.3601  159.8444 F       1  UNL1       -0.1658
     25 N         138.3301  139.3325  164.2509 N.3     1  UNL1       -0.2975
     26 H         138.2802  138.3559  164.5412 H       1  UNL1        0.1232
     27 C         137.8468  140.4650  161.9632 C.3     1  UNL1        0.1591
     28 C         137.9518  140.4672  160.4668 C.3     1  UNL1        0.1729
     29 O         138.6448  139.3391  159.7619 O.3     1  UNL1       -0.3511
     30 C         139.2330  138.2086  160.5534 C.3     1  UNL1        0.1437
     31 C         139.1281  138.2065  162.0497 C.3     1  UNL1        0.0503
     32 C         138.4350  139.3347  162.7546 C.3     1  UNL1        0.0865
     33 C         137.6319  143.0023  162.4790 C.3     1  UNL1        0.1742
     34 O         137.1538  141.5931  162.6681 O.3     1  UNL1       -0.3496
     35 O         143.7757  142.6010  168.4550 O.3     1  UNL1       -0.3536
     36 C         143.7137  142.5268  169.9519 C.3     1  UNL1        0.1740
@<TRIPOS>BOND
     1    33    34    1
     2    34    27    1
     3    27    28    1
     4    28    29    1
     5    29    30    1
     6    30    31    1
     7    31    32    1
     8    32    25    1
     9     1    25    1
    10     1     2    1
    11     3     2    1
    12     3     4    1
    13     4     5    1
    14     5    35    1
    15    35    36    1
    16     5     6    1
    17     6     7    1
    18     7     9    1
    19     9    10    2
    20     9    11   am
    21    11    12    1
    22    12    13    1
    23    13    14    1
    24    14    15   ar
    25    15    16   ar
    26    16    17   ar
    27    17    21    1
    28    21    22    1
    29    21    23    1
    30    21    24    1
    31    17    18   ar
    32    18    19   ar
    33    19    20    1
    34     7     8    1
    35    32    27    1
    36     8     1    1
    37     7     3    1
    38    20    11    1
    39    19    14   ar
    40    25    26    1
@<TRIPOS>MOLECULE
*****
 36 40 0 0 0
SMALL
GASTEIGER

@<TRIPOS>ATOM
      1 C         139.2277  141.6906  160.0385 C.3     1  UNL1        0.0545
      2 C         138.9006  140.6105  159.0504 C.3     1  UNL1        0.0163
      3 C         140.1215  139.7567  158.8758 C.3     1  UNL1        0.0120
      4 C         140.6739  138.5616  158.1572 C.3     1  UNL1        0.0301
      5 C         142.0970  138.3753  158.5934 C.3     1  UNL1        0.1158
      6 C         142.4241  139.4554  159.5815 C.3     1  UNL1        0.0382
      7 C         141.2032  140.3092  159.7561 C.3     1  UNL1        0.0728
      8 C         140.6508  141.5043  160.4747 C.3     1  UNL1        0.0244
      9 C         142.2848  140.8616  160.6363 C.2     1  UNL1        0.2251
     10 O         143.5034  141.4867  160.0246 O.2     1  UNL1       -0.2749
     11 N         142.1478  140.7889  162.1283 N.am    1  UNL1       -0.2750
     12 C         143.2295  141.3414  163.0086 C.3     1  UNL1        0.1000
     13 C         143.0925  141.2687  164.5005 C.3     1  UNL1        0.0670
     14 C         141.8738  140.6435  165.1122 C.ar    1  UNL1        0.0583
     15 N         141.7369  140.5708  166.6042 N.ar    1  UNL1       -0.2484
     16 C         140.5182  139.9457  167.2159 C.ar    1  UNL1        0.1023
     17 C         139.4366  139.3933  166.3356 C.ar    1  UNL1        0.0902
     18 C         139.5736  139.4660  164.8436 C.ar    1  UNL1        0.0040
     19 C         140.7922  140.0911  164.2319 C.ar    1  UNL1        0.0113
     20 C         140.9292  140.1638  162.7400 C.3     1  UNL1        0.1213
     21 C         138.2179  138.7681  166.9472 C.3     1  UNL1        0.4200
     22 F         136.9993  138.1430  167.5589 F       1  UNL1       -0.1658
     23 F         138.4434  139.5573  168.2028 F       1  UNL1       -0.1658
     24 F         137.9925  137.9790  165.6917 F       1  UNL1       -0.1658
     25 N         138.2954  142.7678  160.5081 N.3     1  UNL1       -0.2975
     26 H         138.5372  143.6128  159.9905 H       1  UNL1        0.1232
     27 C         138.8043  144.4683  162.4053 C.3     1  UNL1        0.1591
     28 C         138.7648  144.8458  163.8565 C.3     1  UNL1        0.1729
     29 O         138.1768  143.9004  164.8617 O.3     1  UNL1       -0.3511
     30 C         137.6283  142.5773  164.4157 C.3     1  UNL1        0.1437
     31 C         137.6679  142.1998  162.9645 C.3     1  UNL1        0.0503
     32 C         138.2559  143.1453  161.9593 C.3     1  UNL1        0.0865
     33 C         140.8234  145.2633  160.9766 C.3     1  UNL1        0.1742
     34 O         139.3923  145.4137  161.4001 O.3     1  UNL1       -0.3496
     35 O         143.0293  137.2981  158.1237 O.3     1  UNL1       -0.3536
     36 C         142.6516  136.4360  156.9559 C.3     1  UNL1        0.1740
@<TRIPOS>BOND
     1    33    34    1
     2    34    27    1
     3    27    28    1
     4    28    29    1
     5    29    30    1
     6    30    31    1
     7    31    32    1
     8    32    25    1
     9     1    25    1
    10     1     2    1
    11     3     2    1
    12     3     4    1
    13     4     5    1
    14     5    35    1
    15    35    36    1
    16     5     6    1
    17     6     7    1
    18     7     9    1
    19     9    10    2
    20     9    11   am
    21    11    12    1
    22    12    13    1
    23    13    14    1
    24    14    15   ar
    25    15    16   ar
    26    16    17   ar
    27    17    21    1
    28    21    22    1
    29    21    23    1
    30    21    24    1
    31    17    18   ar
    32    18    19   ar
    33    19    20    1
    34     7     8    1
    35    32    27    1
    36     8     1    1
    37     7     3    1
    38    20    11    1
    39    19    14   ar
    40    25    26    1
