@<TRIPOS>MOLECULE
*****
 40 45 0 0 0
SMALL
GASTEIGER

@<TRIPOS>ATOM
      1 C         138.4599  142.8552  162.6325 C.ar    1  UNL1        0.0910
      2 N         138.9135  143.7817  161.5435 N.ar    1  UNL1       -0.2295
      3 C         139.7054  142.9804  160.5532 C.ar    1  UNL1        0.1484
      4 C         140.3985  143.3616  159.2787 C.ar    1  UNL1        0.0387
      5 C         141.1275  142.3211  158.4813 C.ar    1  UNL1        0.0191
      6 C         141.1634  140.8994  158.9583 C.ar    1  UNL1        0.0659
      7 C         140.4703  140.5182  160.2327 C.ar    1  UNL1        0.0970
      8 N         139.7413  141.5587  161.0301 N.ar    1  UNL1       -0.2761
      9 C         138.9715  141.4814  162.3152 C.ar    1  UNL1        0.1365
     10 N         141.8924  139.8589  158.1607 N.pl3   1  UNL1       -0.3035
     11 C         141.8460  138.4207  158.5841 C.3     1  UNL1        0.1082
     12 C         142.5750  137.3802  157.7865 C.3     1  UNL1        0.0942
     13 N         143.3504  137.7781  156.5657 N.3     1  UNL1       -0.2620
     14 C         143.3968  139.2164  156.1423 C.3     1  UNL1        0.0942
     15 C         142.6678  140.2568  156.9399 C.3     1  UNL1        0.1082
     16 C         144.0794  136.7377  155.7681 C.3     1  UNL1        0.1587
     17 C         143.3326  135.5653  155.2044 C.2     1  UNL1        0.2422
     18 O         142.6279  135.6886  153.8860 O.2     1  UNL1       -0.2734
     19 N         143.2905  134.2696  155.9590 N.am    1  UNL1       -0.2733
     20 C         142.6682  132.9251  155.7242 C.3     1  UNL1        0.1244
     21 C         143.2310  132.4372  157.0262 C.3     1  UNL1        0.1500
     22 O         143.1889  131.1416  157.7808 O.3     1  UNL1       -0.3810
     23 C         143.8533  133.7817  157.2610 C.3     1  UNL1        0.1244
     24 H         142.6689  130.4930  157.2810 H       1  UNL1        0.2105
     25 C         138.1167  144.3158  164.7536 C.3     1  UNL1        0.0068
     26 C         137.6388  143.2359  163.8287 C.3     1  UNL1        0.0487
     27 N         138.7519  140.2469  163.1385 N.pl3   1  UNL1       -0.2509
     28 C         138.1738  139.0160  162.5052 C.3     1  UNL1        0.1207
     29 C         139.1104  140.2430  164.5950 C.ar    1  UNL1        0.1679
     30 N         140.0397  141.2029  165.2768 N.ar    1  UNL1       -0.2237
     31 C         140.1060  140.8317  166.7286 C.ar    1  UNL1        0.0897
     32 C         139.2178  139.6425  166.9441 C.ar    1  UNL1        0.0572
     33 S         138.6024  139.2786  165.6254 S.2     1  UNL1       -0.0506
     34 C         140.9182  141.5277  167.7804 C.ar    1  UNL1        0.0184
     35 C         142.3138  141.0656  168.0782 C.ar    1  UNL1        0.0038
     36 C         143.1259  141.7615  169.1299 C.ar    1  UNL1        0.0297
     37 C         142.5424  142.9196  169.8839 C.ar    1  UNL1        0.1401
     38 F         143.3545  143.6155  170.9356 F       1  UNL1       -0.2042
     39 C         141.1468  143.3817  169.5861 C.ar    1  UNL1        0.0297
     40 C         140.3347  142.6857  168.5343 C.ar    1  UNL1        0.0038
@<TRIPOS>BOND
     1    25    26    1
     2    26     1    1
     3     1     2   ar
     4     2     3   ar
     5     3     4   ar
     6     4     5   ar
     7     5     6   ar
     8     6    10    1
     9    10    11    1
    10    11    12    1
    11    12    13    1
    12    13    16    1
    13    16    17    1
    14    17    18    2
    15    17    19   am
    16    19    20    1
    17    20    21    1
    18    21    22    1
    19    21    23    1
    20    13    14    1
    21    14    15    1
    22     6     7   ar
    23     7     8   ar
    24     8     9   ar
    25     9    27    1
    26    27    28    1
    27    27    29    1
    28    29    30   ar
    29    30    31   ar
    30    31    34    1
    31    34    35   ar
    32    35    36   ar
    33    36    37   ar
    34    37    38    1
    35    37    39   ar
    36    39    40   ar
    37    31    32   ar
    38    32    33   ar
    39     9     1   ar
    40    33    29   ar
    41     8     3   ar
    42    40    34   ar
    43    15    10    1
    44    23    19    1
    45    22    24    1
@<TRIPOS>MOLECULE
*****
 40 45 0 0 0
SMALL
GASTEIGER

@<TRIPOS>ATOM
      1 C         141.7544  144.4081  162.4369 C.ar    1  UNL1        0.0910
      2 N         142.6350  144.3999  161.2227 N.ar    1  UNL1       -0.2295
      3 C         141.8548  143.8050  160.0881 C.ar    1  UNL1        0.1484
      4 C         142.2092  143.5442  158.6541 C.ar    1  UNL1        0.0387
      5 C         141.2007  142.9239  157.7332 C.ar    1  UNL1        0.0191
      6 C         139.8378  142.5644  158.2462 C.ar    1  UNL1        0.0659
      7 C         139.4834  142.8252  159.6802 C.ar    1  UNL1        0.0970
      8 N         140.4919  143.4455  160.6011 N.ar    1  UNL1       -0.2761
      9 C         140.4299  143.8182  162.0528 C.ar    1  UNL1        0.1365
     10 N         138.8293  141.9440  157.3252 N.pl3   1  UNL1       -0.3035
     11 C         137.6170  142.7221  156.9071 C.3     1  UNL1        0.1082
     12 C         136.6085  142.1018  155.9861 C.3     1  UNL1        0.0942
     13 N         136.8124  140.7034  155.4833 N.3     1  UNL1       -0.2620
     14 C         138.0248  139.9253  155.9015 C.3     1  UNL1        0.0942
     15 C         139.0332  140.5456  156.8224 C.3     1  UNL1        0.1082
     16 C         135.8040  140.0830  154.5623 C.3     1  UNL1        0.1587
     17 C         134.4119  140.6371  154.4919 C.2     1  UNL1        0.2422
     18 O         133.9937  141.4672  153.3146 O.2     1  UNL1       -0.2734
     19 N         133.4379  140.3612  155.5988 N.am    1  UNL1       -0.2733
     20 C         132.0102  140.7311  155.8722 C.3     1  UNL1        0.1244
     21 C         132.0606  139.9709  157.1643 C.3     1  UNL1        0.1500
     22 O         131.0867  139.6949  158.2712 O.3     1  UNL1       -0.3810
     23 C         133.4883  139.6009  156.8909 C.3     1  UNL1        0.1244
     24 H         130.2395  140.1227  158.0706 H       1  UNL1        0.2105
     25 C         143.5704  145.1913  164.1218 C.3     1  UNL1        0.0068
     26 C         142.1320  144.9168  163.7966 C.3     1  UNL1        0.0487
     27 N         139.2503  143.6334  162.9609 N.pl3   1  UNL1       -0.2509
     28 C         138.0719  144.5557  162.8567 C.3     1  UNL1        0.1207
     29 C         139.2491  142.5265  163.9730 C.ar    1  UNL1        0.1679
     30 N         140.2891  142.2963  165.0291 N.ar    1  UNL1       -0.2237
     31 C         139.8904  141.0829  165.8157 C.ar    1  UNL1        0.0897
     32 C         138.6040  140.5631  165.2457 C.ar    1  UNL1        0.0572
     33 S         138.2076  141.4553  164.1069 S.2     1  UNL1       -0.0506
     34 C         140.6456  140.4928  166.9696 C.ar    1  UNL1        0.0184
     35 C         140.0374  140.4893  168.3408 C.ar    1  UNL1        0.0038
     36 C         140.7926  139.8993  169.4947 C.ar    1  UNL1        0.0297
     37 C         142.1559  139.3127  169.2775 C.ar    1  UNL1        0.1401
     38 F         142.9111  138.7226  170.4315 F       1  UNL1       -0.2042
     39 C         142.7641  139.3161  167.9064 C.ar    1  UNL1        0.0297
     40 C         142.0089  139.9062  166.7524 C.ar    1  UNL1        0.0038
@<TRIPOS>BOND
     1    25    26    1
     2    26     1    1
     3     1     2   ar
     4     2     3   ar
     5     3     4   ar
     6     4     5   ar
     7     5     6   ar
     8     6    10    1
     9    10    11    1
    10    11    12    1
    11    12    13    1
    12    13    16    1
    13    16    17    1
    14    17    18    2
    15    17    19   am
    16    19    20    1
    17    20    21    1
    18    21    22    1
    19    21    23    1
    20    13    14    1
    21    14    15    1
    22     6     7   ar
    23     7     8   ar
    24     8     9   ar
    25     9    27    1
    26    27    28    1
    27    27    29    1
    28    29    30   ar
    29    30    31   ar
    30    31    34    1
    31    34    35   ar
    32    35    36   ar
    33    36    37   ar
    34    37    38    1
    35    37    39   ar
    36    39    40   ar
    37    31    32   ar
    38    32    33   ar
    39     9     1   ar
    40    33    29   ar
    41     8     3   ar
    42    40    34   ar
    43    15    10    1
    44    23    19    1
    45    22    24    1
@<TRIPOS>MOLECULE
*****
 40 45 0 0 0
SMALL
GASTEIGER

@<TRIPOS>ATOM
      1 C         138.6921  143.4185  162.7754 C.ar    1  UNL1        0.0910
      2 N         137.6215  142.4815  162.3001 N.ar    1  UNL1       -0.2295
      3 C         138.2519  141.4948  161.3625 C.ar    1  UNL1        0.1484
      4 C         137.6849  140.3407  160.5901 C.ar    1  UNL1        0.0387
      5 C         138.5781  139.5138  159.7136 C.ar    1  UNL1        0.0191
      6 C         140.0383  139.8410  159.6095 C.ar    1  UNL1        0.0659
      7 C         140.6052  140.9951  160.3818 C.ar    1  UNL1        0.0970
      8 N         139.7120  141.8220  161.2583 N.ar    1  UNL1       -0.2761
      9 C         139.9841  143.0109  162.1316 C.ar    1  UNL1        0.1365
     10 N         140.9315  139.0140  158.7329 N.pl3   1  UNL1       -0.3035
     11 C         142.0813  138.2600  159.3324 C.3     1  UNL1        0.1082
     12 C         142.9746  137.4330  158.4558 C.3     1  UNL1        0.0942
     13 N         142.7179  137.3601  156.9797 N.3     1  UNL1       -0.2620
     14 C         141.5680  138.1141  156.3802 C.3     1  UNL1        0.0942
     15 C         140.6749  138.9410  157.2568 C.3     1  UNL1        0.1082
     16 C         143.6111  136.5332  156.1031 C.3     1  UNL1        0.1587
     17 C         143.0898  135.2738  155.4768 C.2     1  UNL1        0.2422
     18 O         142.4312  135.3230  154.1300 O.2     1  UNL1       -0.2734
     19 N         143.2272  133.9653  156.1972 N.am    1  UNL1       -0.2733
     20 C         142.8427  132.5460  155.9011 C.3     1  UNL1        0.1244
     21 C         143.4216  132.1148  157.2160 C.3     1  UNL1        0.1500
     22 O         143.5590  130.8064  157.9365 O.3     1  UNL1       -0.3810
     23 C         143.8061  133.5342  157.5121 C.3     1  UNL1        0.1244
     24 H         143.1733  130.0983  157.3972 H       1  UNL1        0.2105
     25 C         138.9367  144.4271  165.1572 C.3     1  UNL1        0.0068
     26 C         138.5037  144.5622  163.7274 C.3     1  UNL1        0.0487
     27 N         141.3146  143.6755  162.3267 N.pl3   1  UNL1       -0.2509
     28 C         141.7703  144.7369  161.3697 C.3     1  UNL1        0.1207
     29 C         142.1894  143.2787  163.4786 C.ar    1  UNL1        0.1679
     30 N         141.7406  142.5761  164.7256 N.ar    1  UNL1       -0.2237
     31 C         142.9406  142.3781  165.6035 C.ar    1  UNL1        0.0897
     32 C         144.1310  142.9583  164.8993 C.ar    1  UNL1        0.0572
     33 S         143.6668  143.5149  163.5860 S.2     1  UNL1       -0.0506
     34 C         142.9487  141.7160  166.9495 C.ar    1  UNL1        0.0184
     35 C         142.6040  140.2613  167.0719 C.ar    1  UNL1        0.0038
     36 C         142.6121  139.5993  168.4179 C.ar    1  UNL1        0.0297
     37 C         142.9649  140.3919  169.6415 C.ar    1  UNL1        0.1401
     38 F         142.9730  139.7299  170.9875 F       1  UNL1       -0.2042
     39 C         143.3095  141.8466  169.5191 C.ar    1  UNL1        0.0297
     40 C         143.3015  142.5087  168.1731 C.ar    1  UNL1        0.0038
@<TRIPOS>BOND
     1    25    26    1
     2    26     1    1
     3     1     2   ar
     4     2     3   ar
     5     3     4   ar
     6     4     5   ar
     7     5     6   ar
     8     6    10    1
     9    10    11    1
    10    11    12    1
    11    12    13    1
    12    13    16    1
    13    16    17    1
    14    17    18    2
    15    17    19   am
    16    19    20    1
    17    20    21    1
    18    21    22    1
    19    21    23    1
    20    13    14    1
    21    14    15    1
    22     6     7   ar
    23     7     8   ar
    24     8     9   ar
    25     9    27    1
    26    27    28    1
    27    27    29    1
    28    29    30   ar
    29    30    31   ar
    30    31    34    1
    31    34    35   ar
    32    35    36   ar
    33    36    37   ar
    34    37    38    1
    35    37    39   ar
    36    39    40   ar
    37    31    32   ar
    38    32    33   ar
    39     9     1   ar
    40    33    29   ar
    41     8     3   ar
    42    40    34   ar
    43    15    10    1
    44    23    19    1
    45    22    24    1
@<TRIPOS>MOLECULE
*****
 40 45 0 0 0
SMALL
GASTEIGER

@<TRIPOS>ATOM
      1 C         140.2289  144.1604  162.3172 C.ar    1  UNL1        0.0910
      2 N         139.2127  144.0248  161.2223 N.ar    1  UNL1       -0.2295
      3 C         139.7004  142.9789  160.2641 C.ar    1  UNL1        0.1484
      4 C         139.1149  142.4257  158.9987 C.ar    1  UNL1        0.0387
      5 C         139.8471  141.3617  158.2361 C.ar    1  UNL1        0.0191
      6 C         141.1647  140.8508  158.7388 C.ar    1  UNL1        0.0659
      7 C         141.7502  141.4040  160.0042 C.ar    1  UNL1        0.0970
      8 N         141.0181  142.4680  160.7668 N.ar    1  UNL1       -0.2761
      9 C         141.3447  143.1982  162.0357 C.ar    1  UNL1        0.1365
     10 N         141.8969  139.7866  157.9761 N.pl3   1  UNL1       -0.3035
     11 C         141.9067  138.3742  158.4811 C.3     1  UNL1        0.1082
     12 C         142.6389  137.3101  157.7184 C.3     1  UNL1        0.0942
     13 N         143.3612  137.6585  156.4508 N.3     1  UNL1       -0.2620
     14 C         143.3514  139.0709  155.9458 C.3     1  UNL1        0.0942
     15 C         142.6193  140.1350  156.7085 C.3     1  UNL1        0.1082
     16 C         144.0934  136.5944  155.6881 C.3     1  UNL1        0.1587
     17 C         143.3478  135.4083  155.1522 C.2     1  UNL1        0.2422
     18 O         142.6334  135.5032  153.8367 O.2     1  UNL1       -0.2734
     19 N         143.3165  134.1272  155.9319 N.am    1  UNL1       -0.2733
     20 C         142.6984  132.7758  155.7274 C.3     1  UNL1        0.1244
     21 C         143.2723  132.3155  157.0346 C.3     1  UNL1        0.1500
     22 O         143.2411  131.0345  157.8143 O.3     1  UNL1       -0.3810
     23 C         143.8904  133.6669  157.2391 C.3     1  UNL1        0.1244
     24 H         142.7205  130.3742  157.3307 H       1  UNL1        0.2105
     25 C         139.2397  144.7719  164.6405 C.3     1  UNL1        0.0068
     26 C         140.1442  145.0941  163.4881 C.3     1  UNL1        0.0487
     27 N         142.5717  143.0009  162.8756 N.pl3   1  UNL1       -0.2509
     28 C         143.7989  143.8235  162.6157 C.3     1  UNL1        0.1207
     29 C         142.5717  141.9810  163.9754 C.ar    1  UNL1        0.1679
     30 N         141.7911  142.0626  165.2537 N.ar    1  UNL1       -0.2237
     31 C         142.0893  140.8324  166.0584 C.ar    1  UNL1        0.0897
     32 C         143.0542  139.9904  165.2775 C.ar    1  UNL1        0.0572
     33 S         143.3524  140.7002  163.9901 S.2     1  UNL1       -0.0506
     34 C         141.5222  140.5021  167.4072 C.ar    1  UNL1        0.0184
     35 C         142.4329  140.0733  168.5192 C.ar    1  UNL1        0.0038
     36 C         141.8657  139.7431  169.8680 C.ar    1  UNL1        0.0297
     37 C         140.3878  139.8416  170.1048 C.ar    1  UNL1        0.1401
     38 F         139.8207  139.5114  171.4536 F       1  UNL1       -0.2042
     39 C         139.4771  140.2704  168.9928 C.ar    1  UNL1        0.0297
     40 C         140.0443  140.6007  167.6440 C.ar    1  UNL1        0.0038
@<TRIPOS>BOND
     1    25    26    1
     2    26     1    1
     3     1     2   ar
     4     2     3   ar
     5     3     4   ar
     6     4     5   ar
     7     5     6   ar
     8     6    10    1
     9    10    11    1
    10    11    12    1
    11    12    13    1
    12    13    16    1
    13    16    17    1
    14    17    18    2
    15    17    19   am
    16    19    20    1
    17    20    21    1
    18    21    22    1
    19    21    23    1
    20    13    14    1
    21    14    15    1
    22     6     7   ar
    23     7     8   ar
    24     8     9   ar
    25     9    27    1
    26    27    28    1
    27    27    29    1
    28    29    30   ar
    29    30    31   ar
    30    31    34    1
    31    34    35   ar
    32    35    36   ar
    33    36    37   ar
    34    37    38    1
    35    37    39   ar
    36    39    40   ar
    37    31    32   ar
    38    32    33   ar
    39     9     1   ar
    40    33    29   ar
    41     8     3   ar
    42    40    34   ar
    43    15    10    1
    44    23    19    1
    45    22    24    1
@<TRIPOS>MOLECULE
*****
 40 45 0 0 0
SMALL
GASTEIGER

@<TRIPOS>ATOM
      1 C         139.8241  140.3316  168.1733 C.ar    1  UNL1        0.0910
      2 N         138.8316  139.3163  167.6894 N.ar    1  UNL1       -0.2295
      3 C         139.2019  138.9383  166.2858 C.ar    1  UNL1        0.1484
      4 C         138.5847  137.9833  165.3076 C.ar    1  UNL1        0.0387
      5 C         139.1890  137.8100  163.9457 C.ar    1  UNL1        0.0191
      6 C         140.4104  138.5917  163.5620 C.ar    1  UNL1        0.0659
      7 C         141.0275  139.5467  164.5403 C.ar    1  UNL1        0.0970
      8 N         140.4233  139.7200  165.9022 N.ar    1  UNL1       -0.2761
      9 C         140.8078  140.5811  167.0687 C.ar    1  UNL1        0.1365
     10 N         141.0146  138.4184  162.2001 N.pl3   1  UNL1       -0.3035
     11 C         142.4192  137.9105  162.0618 C.3     1  UNL1        0.1082
     12 C         143.0234  137.7372  160.6998 C.3     1  UNL1        0.0942
     13 N         142.2230  138.0717  159.4761 N.3     1  UNL1       -0.2620
     14 C         140.8183  138.5796  159.6144 C.3     1  UNL1        0.0942
     15 C         140.2142  138.7529  160.9764 C.3     1  UNL1        0.1082
     16 C         142.8272  137.8984  158.1142 C.3     1  UNL1        0.1587
     17 C         142.0370  137.2418  157.0213 C.2     1  UNL1        0.2422
     18 O         140.9960  138.0227  156.2754 O.2     1  UNL1       -0.2734
     19 N         142.2879  135.8041  156.6743 N.am    1  UNL1       -0.2733
     20 C         141.7178  134.8383  155.6782 C.3     1  UNL1        0.1244
     21 C         142.6428  133.7711  156.1836 C.3     1  UNL1        0.1500
     22 O         142.8938  132.3335  155.8367 O.3     1  UNL1       -0.3810
     23 C         143.2130  134.7369  157.1797 C.3     1  UNL1        0.1244
     24 H         142.3033  132.0674  155.1146 H       1  UNL1        0.2105
     25 C         140.2724  140.2060  170.7293 C.3     1  UNL1        0.0068
     26 C         139.8315  140.9830  169.5244 C.3     1  UNL1        0.0487
     27 N         141.9717  141.5258  167.1214 N.pl3   1  UNL1       -0.2509
     28 C         142.8013  141.6252  168.3672 C.3     1  UNL1        0.1207
     29 C         142.3062  142.3711  165.9283 C.ar    1  UNL1        0.1679
     30 N         141.3409  142.8363  164.8788 N.ar    1  UNL1       -0.2237
     31 C         142.1028  143.6524  163.8771 C.ar    1  UNL1        0.0897
     32 C         143.5391  143.6917  164.3076 C.ar    1  UNL1        0.0572
     33 S         143.6649  142.8998  165.5754 S.2     1  UNL1       -0.0506
     34 C         141.5292  144.3133  162.6589 C.ar    1  UNL1        0.0184
     35 C         142.0315  143.9391  161.2959 C.ar    1  UNL1        0.0038
     36 C         141.4579  144.6000  160.0776 C.ar    1  UNL1        0.0297
     37 C         140.3819  145.6351  160.2223 C.ar    1  UNL1        0.1401
     38 F         139.8083  146.2960  159.0040 F       1  UNL1       -0.2042
     39 C         139.8796  146.0093  161.5852 C.ar    1  UNL1        0.0297
     40 C         140.4533  145.3484  162.8035 C.ar    1  UNL1        0.0038
@<TRIPOS>BOND
     1    25    26    1
     2    26     1    1
     3     1     2   ar
     4     2     3   ar
     5     3     4   ar
     6     4     5   ar
     7     5     6   ar
     8     6    10    1
     9    10    11    1
    10    11    12    1
    11    12    13    1
    12    13    16    1
    13    16    17    1
    14    17    18    2
    15    17    19   am
    16    19    20    1
    17    20    21    1
    18    21    22    1
    19    21    23    1
    20    13    14    1
    21    14    15    1
    22     6     7   ar
    23     7     8   ar
    24     8     9   ar
    25     9    27    1
    26    27    28    1
    27    27    29    1
    28    29    30   ar
    29    30    31   ar
    30    31    34    1
    31    34    35   ar
    32    35    36   ar
    33    36    37   ar
    34    37    38    1
    35    37    39   ar
    36    39    40   ar
    37    31    32   ar
    38    32    33   ar
    39     9     1   ar
    40    33    29   ar
    41     8     3   ar
    42    40    34   ar
    43    15    10    1
    44    23    19    1
    45    22    24    1
@<TRIPOS>MOLECULE
*****
 40 45 0 0 0
SMALL
GASTEIGER

@<TRIPOS>ATOM
      1 C         143.5940  143.1012  162.5907 C.ar    1  UNL1        0.0910
      2 N         143.0664  144.3786  162.0077 N.ar    1  UNL1       -0.2295
      3 C         142.0620  144.0259  160.9510 C.ar    1  UNL1        0.1484
      4 C         141.2202  144.8732  160.0436 C.ar    1  UNL1        0.0387
      5 C         140.2852  144.2251  159.0660 C.ar    1  UNL1        0.0191
      6 C         140.1919  142.7296  158.9959 C.ar    1  UNL1        0.0659
      7 C         141.0337  141.8823  159.9033 C.ar    1  UNL1        0.0970
      8 N         141.9687  142.5305  160.8809 N.ar    1  UNL1       -0.2761
      9 C         142.9155  141.9590  161.8943 C.ar    1  UNL1        0.1365
     10 N         139.2569  142.0815  158.0183 N.pl3   1  UNL1       -0.3035
     11 C         138.0734  142.8409  157.4961 C.3     1  UNL1        0.1082
     12 C         137.1383  142.1928  156.5185 C.3     1  UNL1        0.0942
     13 N         137.3868  140.7853  156.0632 N.3     1  UNL1       -0.2620
     14 C         138.5703  140.0259  156.5855 C.3     1  UNL1        0.0942
     15 C         139.5053  140.6741  157.5630 C.3     1  UNL1        0.1082
     16 C         136.4518  140.1372  155.0856 C.3     1  UNL1        0.1587
     17 C         135.1065  140.7447  154.8187 C.2     1  UNL1        0.2422
     18 O         134.9021  141.6145  153.6139 O.2     1  UNL1       -0.2734
     19 N         133.9657  140.4825  155.7568 N.am    1  UNL1       -0.2733
     20 C         132.5264  140.9001  155.8192 C.3     1  UNL1        0.1244
     21 C         132.3524  140.1116  157.0833 C.3     1  UNL1        0.1500
     22 O         131.2117  139.8494  158.0213 O.3     1  UNL1       -0.3810
     23 C         133.7918  139.6939  157.0209 C.3     1  UNL1        0.1244
     24 H         130.4203  140.3128  157.7055 H       1  UNL1        0.2105
     25 C         144.3713  143.6228  165.0142 C.3     1  UNL1        0.0068
     26 C         144.6198  142.9862  163.6790 C.3     1  UNL1        0.0487
     27 N         143.1438  140.5012  162.1639 N.pl3   1  UNL1       -0.2509
     28 C         144.0087  139.6942  161.2413 C.3     1  UNL1        0.1207
     29 C         142.5074  139.8502  163.3559 C.ar    1  UNL1        0.1679
     30 N         142.3749  140.4521  164.7234 N.ar    1  UNL1       -0.2237
     31 C         141.6773  139.4569  165.6024 C.ar    1  UNL1        0.0897
     32 C         141.3785  138.2398  164.7783 C.ar    1  UNL1        0.0572
     33 S         141.8916  138.4828  163.3897 S.2     1  UNL1       -0.0506
     34 C         141.3380  139.6456  167.0513 C.ar    1  UNL1        0.0184
     35 C         142.4001  139.4824  168.0978 C.ar    1  UNL1        0.0038
     36 C         142.0608  139.6711  169.5467 C.ar    1  UNL1        0.0297
     37 C         140.6593  140.0230  169.9491 C.ar    1  UNL1        0.1401
     38 F         140.3200  140.2117  171.3980 F       1  UNL1       -0.2042
     39 C         139.5971  140.1862  168.9026 C.ar    1  UNL1        0.0297
     40 C         139.9365  139.9975  167.4537 C.ar    1  UNL1        0.0038
@<TRIPOS>BOND
     1    25    26    1
     2    26     1    1
     3     1     2   ar
     4     2     3   ar
     5     3     4   ar
     6     4     5   ar
     7     5     6   ar
     8     6    10    1
     9    10    11    1
    10    11    12    1
    11    12    13    1
    12    13    16    1
    13    16    17    1
    14    17    18    2
    15    17    19   am
    16    19    20    1
    17    20    21    1
    18    21    22    1
    19    21    23    1
    20    13    14    1
    21    14    15    1
    22     6     7   ar
    23     7     8   ar
    24     8     9   ar
    25     9    27    1
    26    27    28    1
    27    27    29    1
    28    29    30   ar
    29    30    31   ar
    30    31    34    1
    31    34    35   ar
    32    35    36   ar
    33    36    37   ar
    34    37    38    1
    35    37    39   ar
    36    39    40   ar
    37    31    32   ar
    38    32    33   ar
    39     9     1   ar
    40    33    29   ar
    41     8     3   ar
    42    40    34   ar
    43    15    10    1
    44    23    19    1
    45    22    24    1
@<TRIPOS>MOLECULE
*****
 40 45 0 0 0
SMALL
GASTEIGER

@<TRIPOS>ATOM
      1 C         140.1233  140.7892  168.9101 C.ar    1  UNL1        0.0910
      2 N         139.0030  139.8342  168.6223 N.ar    1  UNL1       -0.2295
      3 C         139.0836  139.4476  167.1752 C.ar    1  UNL1        0.1484
      4 C         138.2428  138.5360  166.3315 C.ar    1  UNL1        0.0387
      5 C         138.5720  138.3406  164.8813 C.ar    1  UNL1        0.0191
      6 C         139.7422  139.0567  164.2747 C.ar    1  UNL1        0.0659
      7 C         140.5830  139.9683  165.1184 C.ar    1  UNL1        0.0970
      8 N         140.2538  140.1638  166.5687 N.ar    1  UNL1       -0.2761
      9 C         140.8963  140.9929  167.6409 C.ar    1  UNL1        0.1365
     10 N         140.0714  138.8613  162.8243 N.pl3   1  UNL1       -0.3035
     11 C         141.4874  138.5974  162.4056 C.3     1  UNL1        0.1082
     12 C         141.8166  138.4020  160.9553 C.3     1  UNL1        0.0942
     13 N         140.7298  138.4703  159.9237 N.3     1  UNL1       -0.2620
     14 C         139.3138  138.7342  160.3424 C.3     1  UNL1        0.0942
     15 C         138.9846  138.9296  161.7927 C.3     1  UNL1        0.1082
     16 C         141.0590  138.2749  158.4734 C.3     1  UNL1        0.1587
     17 C         142.4222  138.6314  157.9591 C.2     1  UNL1        0.2422
     18 O         143.3403  137.5556  157.4594 O.2     1  UNL1       -0.2734
     19 N         142.8673  140.0638  157.9445 N.am    1  UNL1       -0.2733
     20 C         144.1134  140.7831  157.5202 C.3     1  UNL1        0.1244
     21 C         143.4967  142.0895  157.9238 C.3     1  UNL1        0.1500
     22 O         143.9418  143.5219  157.9093 O.3     1  UNL1       -0.3810
     23 C         142.2506  141.3703  158.3481 C.3     1  UNL1        0.1244
     24 H         144.8408  143.5775  157.5492 H       1  UNL1        0.2105
     25 C         139.8680  142.7873  170.5511 C.3     1  UNL1        0.0068
     26 C         140.4187  141.4284  170.2346 C.3     1  UNL1        0.0487
     27 N         142.1004  141.8716  167.4733 N.pl3   1  UNL1       -0.2509
     28 C         142.9943  142.1506  168.6452 C.3     1  UNL1        0.1207
     29 C         142.4108  142.4711  166.1339 C.ar    1  UNL1        0.1679
     30 N         141.4202  143.0953  165.1963 N.ar    1  UNL1       -0.2237
     31 C         142.1635  143.5617  163.9798 C.ar    1  UNL1        0.0897
     32 C         143.6135  143.2260  164.1656 C.ar    1  UNL1        0.0572
     33 S         143.7664  142.5519  165.4969 S.2     1  UNL1       -0.0506
     34 C         141.5624  144.2442  162.7870 C.ar    1  UNL1        0.0184
     35 C         140.4949  145.2811  162.9751 C.ar    1  UNL1        0.0038
     36 C         139.8937  145.9635  161.7823 C.ar    1  UNL1        0.0297
     37 C         140.3600  145.6092  160.4013 C.ar    1  UNL1        0.1401
     38 F         139.7588  146.2917  159.2085 F       1  UNL1       -0.2042
     39 C         141.4275  144.5724  160.2132 C.ar    1  UNL1        0.0297
     40 C         142.0287  143.8899  161.4061 C.ar    1  UNL1        0.0038
@<TRIPOS>BOND
     1    25    26    1
     2    26     1    1
     3     1     2   ar
     4     2     3   ar
     5     3     4   ar
     6     4     5   ar
     7     5     6   ar
     8     6    10    1
     9    10    11    1
    10    11    12    1
    11    12    13    1
    12    13    16    1
    13    16    17    1
    14    17    18    2
    15    17    19   am
    16    19    20    1
    17    20    21    1
    18    21    22    1
    19    21    23    1
    20    13    14    1
    21    14    15    1
    22     6     7   ar
    23     7     8   ar
    24     8     9   ar
    25     9    27    1
    26    27    28    1
    27    27    29    1
    28    29    30   ar
    29    30    31   ar
    30    31    34    1
    31    34    35   ar
    32    35    36   ar
    33    36    37   ar
    34    37    38    1
    35    37    39   ar
    36    39    40   ar
    37    31    32   ar
    38    32    33   ar
    39     9     1   ar
    40    33    29   ar
    41     8     3   ar
    42    40    34   ar
    43    15    10    1
    44    23    19    1
    45    22    24    1
@<TRIPOS>MOLECULE
*****
 40 45 0 0 0
SMALL
GASTEIGER

@<TRIPOS>ATOM
      1 C         142.6079  144.2808  161.8237 C.ar    1  UNL1        0.0910
      2 N         142.0209  144.6806  160.5025 N.ar    1  UNL1       -0.2295
      3 C         142.2047  143.5376  159.5487 C.ar    1  UNL1        0.1484
      4 C         141.8246  143.3611  158.1084 C.ar    1  UNL1        0.0387
      5 C         142.1451  142.0785  157.3999 C.ar    1  UNL1        0.0191
      6 C         142.8457  140.9723  158.1316 C.ar    1  UNL1        0.0659
      7 C         143.2258  141.1487  159.5719 C.ar    1  UNL1        0.0970
      8 N         142.9053  142.4313  160.2804 N.ar    1  UNL1       -0.2761
      9 C         143.1545  142.8907  161.6864 C.ar    1  UNL1        0.1365
     10 N         143.1663  139.6896  157.4230 N.pl3   1  UNL1       -0.3035
     11 C         144.0094  139.7085  156.1826 C.3     1  UNL1        0.1082
     12 C         144.3300  138.4258  155.4740 C.3     1  UNL1        0.0942
     13 N         143.8073  137.1243  156.0059 N.3     1  UNL1       -0.2620
     14 C         142.9641  137.1054  157.2463 C.3     1  UNL1        0.0942
     15 C         142.6436  138.3881  157.9549 C.3     1  UNL1        0.1082
     16 C         144.1278  135.8416  155.2973 C.3     1  UNL1        0.1587
     17 C         143.0656  134.7977  155.1190 C.2     1  UNL1        0.2422
     18 O         141.9531  135.0196  154.1376 O.2     1  UNL1       -0.2734
     19 N         143.1158  133.5317  155.9222 N.am    1  UNL1       -0.2733
     20 C         142.2635  132.3010  156.0166 C.3     1  UNL1        0.1244
     21 C         143.1869  131.7415  157.0580 C.3     1  UNL1        0.1500
     22 O         143.2371  130.4756  157.8611 O.3     1  UNL1       -0.3810
     23 C         144.0392  132.9722  156.9635 C.3     1  UNL1        0.1244
     24 H         142.4825  129.9134  157.6260 H       1  UNL1        0.2105
     25 C         141.4596  145.1487  163.9866 C.3     1  UNL1        0.0068
     26 C         142.6423  145.1232  163.0643 C.3     1  UNL1        0.0487
     27 N         143.8314  142.0989  162.7657 N.pl3   1  UNL1       -0.2509
     28 C         145.2538  141.6555  162.5907 C.3     1  UNL1        0.1207
     29 C         143.0862  141.7504  164.0199 C.ar    1  UNL1        0.1679
     30 N         141.8427  140.9158  164.1037 N.ar    1  UNL1       -0.2237
     31 C         141.4417  140.8250  165.5462 C.ar    1  UNL1        0.0897
     32 C         142.4372  141.6035  166.3540 C.ar    1  UNL1        0.0572
     33 S         143.4537  142.1755  165.4107 S.2     1  UNL1       -0.0506
     34 C         140.2536  140.0855  166.0861 C.ar    1  UNL1        0.0184
     35 C         139.4745  139.1647  165.1943 C.ar    1  UNL1        0.0038
     36 C         138.2864  138.4252  165.7343 C.ar    1  UNL1        0.0297
     37 C         137.8773  138.6064  167.1660 C.ar    1  UNL1        0.1401
     38 F         136.6892  137.8669  167.7059 F       1  UNL1       -0.2042
     39 C         138.6564  139.5271  168.0577 C.ar    1  UNL1        0.0297
     40 C         139.8445  140.2667  167.5178 C.ar    1  UNL1        0.0038
@<TRIPOS>BOND
     1    25    26    1
     2    26     1    1
     3     1     2   ar
     4     2     3   ar
     5     3     4   ar
     6     4     5   ar
     7     5     6   ar
     8     6    10    1
     9    10    11    1
    10    11    12    1
    11    12    13    1
    12    13    16    1
    13    16    17    1
    14    17    18    2
    15    17    19   am
    16    19    20    1
    17    20    21    1
    18    21    22    1
    19    21    23    1
    20    13    14    1
    21    14    15    1
    22     6     7   ar
    23     7     8   ar
    24     8     9   ar
    25     9    27    1
    26    27    28    1
    27    27    29    1
    28    29    30   ar
    29    30    31   ar
    30    31    34    1
    31    34    35   ar
    32    35    36   ar
    33    36    37   ar
    34    37    38    1
    35    37    39   ar
    36    39    40   ar
    37    31    32   ar
    38    32    33   ar
    39     9     1   ar
    40    33    29   ar
    41     8     3   ar
    42    40    34   ar
    43    15    10    1
    44    23    19    1
    45    22    24    1
@<TRIPOS>MOLECULE
*****
 40 45 0 0 0
SMALL
GASTEIGER

@<TRIPOS>ATOM
      1 C         138.8969  142.6699  161.2220 C.ar    1  UNL1        0.0910
      2 N         138.1305  142.9137  159.9558 N.ar    1  UNL1       -0.2295
      3 C         138.4642  141.8132  158.9927 C.ar    1  UNL1        0.1484
      4 C         138.0080  141.5331  157.5915 C.ar    1  UNL1        0.0387
      5 C         138.5245  140.3289  156.8613 C.ar    1  UNL1        0.0191
      6 C         139.4971  139.4049  157.5323 C.ar    1  UNL1        0.0659
      7 C         139.9532  139.6850  158.9335 C.ar    1  UNL1        0.0970
      8 N         139.4367  140.8892  159.6637 N.ar    1  UNL1       -0.2761
      9 C         139.7042  141.4187  161.0414 C.ar    1  UNL1        0.1365
     10 N         140.0135  138.2007  156.8020 N.pl3   1  UNL1       -0.3035
     11 C         141.3248  137.5890  157.1974 C.3     1  UNL1        0.1082
     12 C         141.8412  136.3848  156.4671 C.3     1  UNL1        0.0942
     13 N         141.0464  135.7924  155.3414 N.3     1  UNL1       -0.2620
     14 C         139.7351  136.4041  154.9460 C.3     1  UNL1        0.0942
     15 C         139.2187  137.6083  155.6763 C.3     1  UNL1        0.1082
     16 C         141.5628  134.5882  154.6111 C.3     1  UNL1        0.1587
     17 C         141.6720  133.2709  155.3201 C.2     1  UNL1        0.2422
     18 O         140.5917  132.2423  155.1620 O.2     1  UNL1       -0.2734
     19 N         142.8615  132.9821  156.1871 N.am    1  UNL1       -0.2733
     20 C         143.3062  131.8202  157.0251 C.3     1  UNL1        0.1244
     21 C         144.5437  132.5737  157.4133 C.3     1  UNL1        0.1500
     22 O         145.7332  132.2850  158.2802 O.3     1  UNL1       -0.3810
     23 C         144.0990  133.7357  156.5753 C.3     1  UNL1        0.1244
     24 H         145.6478  131.3970  158.6611 H       1  UNL1        0.2105
     25 C         137.7241  143.4016  163.4218 C.3     1  UNL1        0.0068
     26 C         138.8620  143.5269  162.4526 C.3     1  UNL1        0.0487
     27 N         140.6184  140.8046  162.0599 N.pl3   1  UNL1       -0.2509
     28 C         142.0294  140.4567  161.6881 C.3     1  UNL1        0.1207
     29 C         140.1218  140.5385  163.4499 C.ar    1  UNL1        0.1679
     30 N         140.5536  141.2578  164.6934 N.ar    1  UNL1       -0.2237
     31 C         139.8048  140.6701  165.8526 C.ar    1  UNL1        0.0897
     32 C         138.9101  139.5876  165.3257 C.ar    1  UNL1        0.0572
     33 S         139.1060  139.5062  163.8407 S.2     1  UNL1       -0.0506
     34 C         139.9288  141.0910  167.2870 C.ar    1  UNL1        0.0184
     35 C         140.5016  142.4349  167.6274 C.ar    1  UNL1        0.0038
     36 C         140.6257  142.8558  169.0618 C.ar    1  UNL1        0.0297
     37 C         140.1769  141.9329  170.1558 C.ar    1  UNL1        0.1401
     38 F         140.3010  142.3538  171.5902 F       1  UNL1       -0.2042
     39 C         139.6041  140.5890  169.8154 C.ar    1  UNL1        0.0297
     40 C         139.4801  140.1681  168.3810 C.ar    1  UNL1        0.0038
@<TRIPOS>BOND
     1    25    26    1
     2    26     1    1
     3     1     2   ar
     4     2     3   ar
     5     3     4   ar
     6     4     5   ar
     7     5     6   ar
     8     6    10    1
     9    10    11    1
    10    11    12    1
    11    12    13    1
    12    13    16    1
    13    16    17    1
    14    17    18    2
    15    17    19   am
    16    19    20    1
    17    20    21    1
    18    21    22    1
    19    21    23    1
    20    13    14    1
    21    14    15    1
    22     6     7   ar
    23     7     8   ar
    24     8     9   ar
    25     9    27    1
    26    27    28    1
    27    27    29    1
    28    29    30   ar
    29    30    31   ar
    30    31    34    1
    31    34    35   ar
    32    35    36   ar
    33    36    37   ar
    34    37    38    1
    35    37    39   ar
    36    39    40   ar
    37    31    32   ar
    38    32    33   ar
    39     9     1   ar
    40    33    29   ar
    41     8     3   ar
    42    40    34   ar
    43    15    10    1
    44    23    19    1
    45    22    24    1
