@<TRIPOS>MOLECULE
*****
 37 42 0 0 0
SMALL
GASTEIGER

@<TRIPOS>ATOM
      1 C         140.0137  146.0673  160.2669 C.3     1  UNL1        0.0666
      2 C         139.7352  146.1855  161.7361 C.3     1  UNL1        0.0294
      3 C         138.5516  145.4844  162.3340 C.3     1  UNL1        0.0730
      4 C         142.0213  140.8798  168.5589 C.ar    1  UNL1        0.2057
      5 N         141.6969  141.9588  167.5685 N.ar    1  UNL1       -0.2124
      6 C         140.5325  141.4962  166.7439 C.ar    1  UNL1        0.1143
      7 C         139.7810  142.1415  165.6174 C.ar    1  UNL1       -0.0040
      8 C         138.6342  141.4219  164.9717 C.ar    1  UNL1       -0.0231
      9 C         138.2388  140.0571  165.4522 C.ar    1  UNL1       -0.0013
     10 C         138.9903  139.4118  166.5788 C.ar    1  UNL1        0.0388
     11 C         140.1371  140.1314  167.2246 C.ar    1  UNL1        0.1640
     12 O         141.0573  139.7505  168.3463 O.2     1  UNL1       -0.4384
     13 C         137.7584  141.8806  163.8435 C.3     1  UNL1        0.0434
     14 C         137.8132  143.1721  163.0825 C.3     1  UNL1        0.0768
     15 N         138.7572  144.3239  163.2618 N.3     1  UNL1       -0.2720
     16 C         139.8796  144.4687  164.2463 C.3     1  UNL1        0.0769
     17 C         140.3353  143.4974  165.2946 C.3     1  UNL1        0.0450
     18 C         143.7719  142.2279  169.9257 C.3     1  UNL1        0.0102
     19 C         143.1172  140.9227  169.5822 C.3     1  UNL1        0.0853
     20 S         140.8944  144.9655  159.7568 S.3     1  UNL1       -0.0756
     21 C         141.2906  143.8402  160.6660 C.ar    1  UNL1        0.1932
     22 N         142.4968  143.8097  161.5572 N.ar    1  UNL1       -0.1221
     23 N         142.5019  142.4985  162.2857 N.ar    1  UNL1       -0.1282
     24 C         141.2987  141.7186  161.8448 C.ar    1  UNL1        0.1669
     25 N         140.5501  142.5478  160.8438 N.ar    1  UNL1       -0.2884
     26 C         139.2835  142.1538  160.1435 C.3     1  UNL1        0.1340
     27 C         140.9121  140.3499  162.3213 C.ar    1  UNL1        0.0374
     28 C         139.7811  139.6179  161.6618 C.ar    1  UNL1        0.0031
     29 C         139.3945  138.2491  162.1383 C.ar    1  UNL1        0.0016
     30 C         140.1388  137.6123  163.2742 C.ar    1  UNL1        0.0191
     31 C         141.2698  138.3444  163.9337 C.ar    1  UNL1        0.0810
     32 N         142.0142  137.7076  165.0696 N.ar    1  UNL1       -0.2497
     33 C         143.1453  138.4396  165.7292 C.ar    1  UNL1        0.0593
     34 C         143.8897  137.8029  166.8652 C.3     1  UNL1        0.0521
     35 C         143.5319  139.8084  165.2527 C.ar    1  UNL1        0.0147
     36 C         142.7875  140.4451  164.1167 C.ar    1  UNL1        0.0028
     37 C         141.6565  139.7131  163.4572 C.ar    1  UNL1        0.0206
@<TRIPOS>BOND
     1    18    19    1
     2    19     4    1
     3     4     5   ar
     4     5     6   ar
     5     6     7   ar
     6     7     8   ar
     7     8     9   ar
     8     9    10   ar
     9    10    11   ar
    10    11    12   ar
    11     8    13    1
    12    13    14    1
    13    14    15    1
    14    15     3    1
    15     3     2    1
    16     2     1    1
    17     1    20    1
    18    20    21    1
    19    21    22   ar
    20    22    23   ar
    21    23    24   ar
    22    24    27    1
    23    27    28   ar
    24    28    29   ar
    25    29    30   ar
    26    30    31   ar
    27    31    32   ar
    28    32    33   ar
    29    33    34    1
    30    33    35   ar
    31    35    36   ar
    32    36    37   ar
    33    24    25   ar
    34    25    26    1
    35    15    16    1
    36    16    17    1
    37    12     4   ar
    38    25    21   ar
    39    11     6   ar
    40    37    27   ar
    41    17     7    1
    42    37    31   ar
@<TRIPOS>MOLECULE
*****
 37 42 0 0 0
SMALL
GASTEIGER

@<TRIPOS>ATOM
      1 C         140.3002  144.2729  157.7360 C.3     1  UNL1        0.0666
      2 C         138.9713  143.6161  157.9658 C.3     1  UNL1        0.0294
      3 C         138.8428  142.1255  157.8583 C.3     1  UNL1        0.0730
      4 C         142.7671  138.7190  164.5654 C.ar    1  UNL1        0.2057
      5 N         142.4281  139.5175  163.3417 N.ar    1  UNL1       -0.2124
      6 C         141.0248  139.1742  162.9382 C.ar    1  UNL1        0.1143
      7 C         140.1597  139.6514  161.8095 C.ar    1  UNL1       -0.0040
      8 C         138.7665  139.1177  161.6551 C.ar    1  UNL1       -0.0231
      9 C         138.2381  138.1070  162.6294 C.ar    1  UNL1       -0.0013
     10 C         139.1031  137.6298  163.7581 C.ar    1  UNL1        0.0388
     11 C         140.4965  138.1634  163.9126 C.ar    1  UNL1        0.1640
     12 O         141.5733  137.8821  164.9182 O.2     1  UNL1       -0.4384
     13 C         137.7457  139.4567  160.6095 C.3     1  UNL1        0.0434
     14 C         137.8662  140.4130  159.4601 C.3     1  UNL1        0.0768
     15 N         139.0372  141.2664  159.0725 N.3     1  UNL1       -0.2720
     16 C         140.3769  141.3745  159.7384 C.3     1  UNL1        0.0769
     17 C         140.8765  140.6557  160.9565 C.3     1  UNL1        0.0450
     18 C         145.2479  139.4750  164.7217 C.3     1  UNL1        0.0102
     19 C         144.0710  138.7515  165.3063 C.3     1  UNL1        0.0853
     20 S         140.7356  145.4109  158.6107 S.3     1  UNL1       -0.0756
     21 C         140.7262  145.2562  160.1026 C.ar    1  UNL1        0.1932
     22 N         139.7274  145.8593  161.0453 N.ar    1  UNL1       -0.1221
     23 N         140.0979  145.4472  162.4392 N.ar    1  UNL1       -0.1282
     24 C         141.3257  144.5894  162.3579 C.ar    1  UNL1        0.1669
     25 N         141.7141  144.4713  160.9139 N.ar    1  UNL1       -0.2884
     26 C         142.8847  143.7033  160.3756 C.3     1  UNL1        0.1340
     27 C         142.0399  143.9600  163.5172 C.ar    1  UNL1        0.0374
     28 C         143.4602  144.3374  163.8176 C.ar    1  UNL1        0.0031
     29 C         144.1743  143.7080  164.9768 C.ar    1  UNL1        0.0016
     30 C         143.4682  142.7014  165.8358 C.ar    1  UNL1        0.0191
     31 C         142.0478  142.3240  165.5355 C.ar    1  UNL1        0.0810
     32 N         141.3416  141.3174  166.3944 N.ar    1  UNL1       -0.2497
     33 C         139.9212  140.9400  166.0942 C.ar    1  UNL1        0.0593
     34 C         139.2150  139.9333  166.9531 C.3     1  UNL1        0.0521
     35 C         139.2071  141.5694  164.9348 C.ar    1  UNL1        0.0147
     36 C         139.9134  142.5760  164.0759 C.ar    1  UNL1        0.0028
     37 C         141.3337  142.9534  164.3762 C.ar    1  UNL1        0.0206
@<TRIPOS>BOND
     1    18    19    1
     2    19     4    1
     3     4     5   ar
     4     5     6   ar
     5     6     7   ar
     6     7     8   ar
     7     8     9   ar
     8     9    10   ar
     9    10    11   ar
    10    11    12   ar
    11     8    13    1
    12    13    14    1
    13    14    15    1
    14    15     3    1
    15     3     2    1
    16     2     1    1
    17     1    20    1
    18    20    21    1
    19    21    22   ar
    20    22    23   ar
    21    23    24   ar
    22    24    27    1
    23    27    28   ar
    24    28    29   ar
    25    29    30   ar
    26    30    31   ar
    27    31    32   ar
    28    32    33   ar
    29    33    34    1
    30    33    35   ar
    31    35    36   ar
    32    36    37   ar
    33    24    25   ar
    34    25    26    1
    35    15    16    1
    36    16    17    1
    37    12     4   ar
    38    25    21   ar
    39    11     6   ar
    40    37    27   ar
    41    17     7    1
    42    37    31   ar
@<TRIPOS>MOLECULE
*****
 37 42 0 0 0
SMALL
GASTEIGER

@<TRIPOS>ATOM
      1 C         140.1590  144.1258  157.1410 C.3     1  UNL1        0.0666
      2 C         140.3420  145.3600  157.9737 C.3     1  UNL1        0.0294
      3 C         141.4291  145.4141  159.0059 C.3     1  UNL1        0.0730
      4 C         142.1063  140.6307  165.9809 C.ar    1  UNL1        0.2057
      5 N         142.2685  141.2169  164.6097 N.ar    1  UNL1       -0.2124
      6 C         141.3431  142.3918  164.4955 C.ar    1  UNL1        0.1143
      7 C         141.0739  143.3524  163.3752 C.ar    1  UNL1       -0.0040
      8 C         140.0708  144.4527  163.5555 C.ar    1  UNL1       -0.0231
      9 C         139.3366  144.5928  164.8560 C.ar    1  UNL1       -0.0013
     10 C         139.6056  143.6323  165.9763 C.ar    1  UNL1        0.0388
     11 C         140.6089  142.5318  165.7960 C.ar    1  UNL1        0.1640
     12 O         141.0806  141.4434  166.7141 O.2     1  UNL1       -0.4384
     13 C         139.6552  145.5093  162.5751 C.3     1  UNL1        0.0434
     14 C         140.1402  145.7263  161.1723 C.3     1  UNL1        0.0768
     15 N         141.1606  144.9404  160.4036 N.3     1  UNL1       -0.2720
     16 C         141.9480  143.7433  160.8475 C.3     1  UNL1        0.0769
     17 C         141.9094  143.0366  162.1701 C.3     1  UNL1        0.0450
     18 C         143.7588  138.6561  165.6339 C.3     1  UNL1        0.0102
     19 C         142.8409  139.4408  166.5237 C.3     1  UNL1        0.0853
     20 S         139.0834  143.1397  157.4881 S.3     1  UNL1       -0.0756
     21 C         139.0670  142.4931  158.8415 C.ar    1  UNL1        0.1932
     22 N         138.2830  142.9598  160.0321 N.ar    1  UNL1       -0.1221
     23 N         138.5631  142.0215  161.1684 N.ar    1  UNL1       -0.1282
     24 C         139.5203  140.9749  160.6800 C.ar    1  UNL1        0.1669
     25 N         139.8317  141.2664  159.2419 N.ar    1  UNL1       -0.2884
     26 C         140.7471  140.4708  158.3592 C.3     1  UNL1        0.1340
     27 C         140.0696  139.8367  161.4878 C.ar    1  UNL1        0.0374
     28 C         141.1373  138.9546  160.9116 C.ar    1  UNL1        0.0031
     29 C         141.6866  137.8163  161.7195 C.ar    1  UNL1        0.0016
     30 C         141.1683  137.5601  163.1035 C.ar    1  UNL1        0.0191
     31 C         140.1007  138.4422  163.6798 C.ar    1  UNL1        0.0810
     32 N         139.5824  138.1861  165.0638 N.ar    1  UNL1       -0.2497
     33 C         138.5147  139.0681  165.6401 C.ar    1  UNL1        0.0593
     34 C         137.9963  138.8120  167.0242 C.3     1  UNL1        0.0521
     35 C         137.9654  140.2064  164.8322 C.ar    1  UNL1        0.0147
     36 C         138.4837  140.4625  163.4481 C.ar    1  UNL1        0.0028
     37 C         139.5514  139.5804  162.8719 C.ar    1  UNL1        0.0206
@<TRIPOS>BOND
     1    18    19    1
     2    19     4    1
     3     4     5   ar
     4     5     6   ar
     5     6     7   ar
     6     7     8   ar
     7     8     9   ar
     8     9    10   ar
     9    10    11   ar
    10    11    12   ar
    11     8    13    1
    12    13    14    1
    13    14    15    1
    14    15     3    1
    15     3     2    1
    16     2     1    1
    17     1    20    1
    18    20    21    1
    19    21    22   ar
    20    22    23   ar
    21    23    24   ar
    22    24    27    1
    23    27    28   ar
    24    28    29   ar
    25    29    30   ar
    26    30    31   ar
    27    31    32   ar
    28    32    33   ar
    29    33    34    1
    30    33    35   ar
    31    35    36   ar
    32    36    37   ar
    33    24    25   ar
    34    25    26    1
    35    15    16    1
    36    16    17    1
    37    12     4   ar
    38    25    21   ar
    39    11     6   ar
    40    37    27   ar
    41    17     7    1
    42    37    31   ar
@<TRIPOS>MOLECULE
*****
 37 42 0 0 0
SMALL
GASTEIGER

@<TRIPOS>ATOM
      1 C         142.7611  138.4396  158.2014 C.3     1  UNL1        0.0666
      2 C         142.6093  137.7640  159.5320 C.3     1  UNL1        0.0294
      3 C         143.7315  137.8052  160.5265 C.3     1  UNL1        0.0730
      4 C         141.2189  140.4803  168.1764 C.ar    1  UNL1        0.2057
      5 N         141.4159  139.6962  166.9129 N.ar    1  UNL1       -0.2124
      6 C         142.3765  140.4519  166.0434 C.ar    1  UNL1        0.1143
      7 C         142.9413  140.1625  164.6842 C.ar    1  UNL1       -0.0040
      8 C         143.9027  141.1241  164.0513 C.ar    1  UNL1       -0.0231
      9 C         144.2994  142.3753  164.7773 C.ar    1  UNL1       -0.0013
     10 C         143.7347  142.6648  166.1364 C.ar    1  UNL1        0.0388
     11 C         142.7732  141.7031  166.7695 C.ar    1  UNL1        0.1640
     12 O         142.0578  141.7207  168.0878 O.2     1  UNL1       -0.4384
     13 C         144.5780  141.0283  162.7153 C.3     1  UNL1        0.0434
     14 C         144.4587  139.9470  161.6824 C.3     1  UNL1        0.0768
     15 N         143.6345  138.6947  161.7305 N.3     1  UNL1       -0.2720
     16 C         142.7262  138.2142  162.8231 C.3     1  UNL1        0.0769
     17 C         142.4176  138.8674  164.1377 C.3     1  UNL1        0.0450
     18 C         139.4818  141.1253  169.9976 C.3     1  UNL1        0.0102
     19 C         140.3377  140.0923  169.3266 C.3     1  UNL1        0.0853
     20 S         141.7179  139.4082  157.7288 S.3     1  UNL1       -0.0756
     21 C         140.5154  139.6900  158.5802 C.ar    1  UNL1        0.1932
     22 N         139.1353  139.1430  158.3654 N.ar    1  UNL1       -0.1221
     23 N         138.2489  139.6832  159.4482 N.ar    1  UNL1       -0.1282
     24 C         139.0812  140.5640  160.3322 C.ar    1  UNL1        0.1669
     25 N         140.4820  140.5682  159.7957 N.ar    1  UNL1       -0.2884
     26 C         141.6451  141.3188  160.3735 C.3     1  UNL1        0.1340
     27 C         138.5976  141.3096  161.5405 C.ar    1  UNL1        0.0374
     28 C         138.2407  142.7625  161.4322 C.ar    1  UNL1        0.0031
     29 C         137.7571  143.5082  162.6405 C.ar    1  UNL1        0.0016
     30 C         137.6304  142.8011  163.9572 C.ar    1  UNL1        0.0191
     31 C         137.9874  141.3482  164.0656 C.ar    1  UNL1        0.0810
     32 N         137.8608  140.6410  165.3824 N.ar    1  UNL1       -0.2497
     33 C         138.2177  139.1881  165.4908 C.ar    1  UNL1        0.0593
     34 C         138.0911  138.4809  166.8076 C.3     1  UNL1        0.0521
     35 C         138.7013  138.4424  164.2824 C.ar    1  UNL1        0.0147
     36 C         138.8279  139.1497  162.9657 C.ar    1  UNL1        0.0028
     37 C         138.4710  140.6025  162.8573 C.ar    1  UNL1        0.0206
@<TRIPOS>BOND
     1    18    19    1
     2    19     4    1
     3     4     5   ar
     4     5     6   ar
     5     6     7   ar
     6     7     8   ar
     7     8     9   ar
     8     9    10   ar
     9    10    11   ar
    10    11    12   ar
    11     8    13    1
    12    13    14    1
    13    14    15    1
    14    15     3    1
    15     3     2    1
    16     2     1    1
    17     1    20    1
    18    20    21    1
    19    21    22   ar
    20    22    23   ar
    21    23    24   ar
    22    24    27    1
    23    27    28   ar
    24    28    29   ar
    25    29    30   ar
    26    30    31   ar
    27    31    32   ar
    28    32    33   ar
    29    33    34    1
    30    33    35   ar
    31    35    36   ar
    32    36    37   ar
    33    24    25   ar
    34    25    26    1
    35    15    16    1
    36    16    17    1
    37    12     4   ar
    38    25    21   ar
    39    11     6   ar
    40    37    27   ar
    41    17     7    1
    42    37    31   ar
@<TRIPOS>MOLECULE
*****
 37 42 0 0 0
SMALL
GASTEIGER

@<TRIPOS>ATOM
      1 C         139.2428  139.9175  157.1261 C.3     1  UNL1        0.0666
      2 C         139.6647  138.5762  157.6488 C.3     1  UNL1        0.0294
      3 C         141.0973  138.3331  158.0212 C.3     1  UNL1        0.0730
      4 C         140.5137  139.6120  166.3886 C.ar    1  UNL1        0.2057
      5 N         140.2106  139.3888  164.9366 N.ar    1  UNL1       -0.2124
      6 C         141.5140  139.2805  164.2023 C.ar    1  UNL1        0.1143
      7 C         141.8346  139.0598  162.7536 C.ar    1  UNL1       -0.0040
      8 C         143.2638  138.9955  162.3032 C.ar    1  UNL1       -0.0231
      9 C         144.3726  139.1518  163.3012 C.ar    1  UNL1       -0.0013
     10 C         144.0521  139.3725  164.7499 C.ar    1  UNL1        0.0388
     11 C         142.6228  139.4369  165.2004 C.ar    1  UNL1        0.1640
     12 O         142.0045  139.6417  166.5516 O.2     1  UNL1       -0.4384
     13 C         143.7993  138.7851  160.9178 C.3     1  UNL1        0.0434
     14 C         143.0375  138.5872  159.6408 C.3     1  UNL1        0.0768
     15 N         141.5524  138.5508  159.4338 N.3     1  UNL1       -0.2720
     16 C         140.4620  138.7032  160.4526 C.3     1  UNL1        0.0769
     17 C         140.5876  138.9298  161.9301 C.3     1  UNL1        0.0450
     18 C         139.9203  140.3425  168.8103 C.3     1  UNL1        0.0102
     19 C         139.5034  139.7766  167.4851 C.3     1  UNL1        0.0853
     20 S         138.1934  140.7081  157.8495 S.3     1  UNL1       -0.0756
     21 C         138.5967  141.7627  158.8370 C.ar    1  UNL1        0.1932
     22 N         139.2696  143.0634  158.5123 N.ar    1  UNL1       -0.1221
     23 N         139.4867  143.8065  159.7971 N.ar    1  UNL1       -0.1282
     24 C         138.9481  142.9649  160.9159 C.ar    1  UNL1        0.1669
     25 N         138.3981  141.7018  160.3225 N.ar    1  UNL1       -0.2884
     26 C         137.7612  140.5756  161.0815 C.3     1  UNL1        0.1340
     27 C         138.9578  143.3235  162.3723 C.ar    1  UNL1        0.0374
     28 C         137.6958  143.7835  163.0399 C.ar    1  UNL1        0.0031
     29 C         137.7055  144.1421  164.4964 C.ar    1  UNL1        0.0016
     30 C         138.9772  144.0407  165.2853 C.ar    1  UNL1        0.0191
     31 C         140.2392  143.5807  164.6177 C.ar    1  UNL1        0.0810
     32 N         141.5110  143.4793  165.4066 N.ar    1  UNL1       -0.2497
     33 C         142.7731  143.0194  164.7391 C.ar    1  UNL1        0.0593
     34 C         144.0448  142.9180  165.5280 C.3     1  UNL1        0.0521
     35 C         142.7633  142.6608  163.2826 C.ar    1  UNL1        0.0147
     36 C         141.4915  142.7622  162.4937 C.ar    1  UNL1        0.0028
     37 C         140.2295  143.2221  163.1613 C.ar    1  UNL1        0.0206
@<TRIPOS>BOND
     1    18    19    1
     2    19     4    1
     3     4     5   ar
     4     5     6   ar
     5     6     7   ar
     6     7     8   ar
     7     8     9   ar
     8     9    10   ar
     9    10    11   ar
    10    11    12   ar
    11     8    13    1
    12    13    14    1
    13    14    15    1
    14    15     3    1
    15     3     2    1
    16     2     1    1
    17     1    20    1
    18    20    21    1
    19    21    22   ar
    20    22    23   ar
    21    23    24   ar
    22    24    27    1
    23    27    28   ar
    24    28    29   ar
    25    29    30   ar
    26    30    31   ar
    27    31    32   ar
    28    32    33   ar
    29    33    34    1
    30    33    35   ar
    31    35    36   ar
    32    36    37   ar
    33    24    25   ar
    34    25    26    1
    35    15    16    1
    36    16    17    1
    37    12     4   ar
    38    25    21   ar
    39    11     6   ar
    40    37    27   ar
    41    17     7    1
    42    37    31   ar
@<TRIPOS>MOLECULE
*****
 37 42 0 0 0
SMALL
GASTEIGER

@<TRIPOS>ATOM
      1 C         141.5473  143.2001  158.8347 C.3     1  UNL1        0.0666
      2 C         142.9341  143.5159  159.3113 C.3     1  UNL1        0.0294
      3 C         143.8447  142.4097  159.7554 C.3     1  UNL1        0.0730
      4 C         143.1220  141.6758  168.1774 C.ar    1  UNL1        0.2057
      5 N         143.3161  142.1959  166.7838 N.ar    1  UNL1       -0.2124
      6 C         143.1667  141.0443  165.8343 C.ar    1  UNL1        0.1143
      7 C         143.2545  140.9582  164.3393 C.ar    1  UNL1       -0.0040
      8 C         143.0558  139.6404  163.6511 C.ar    1  UNL1       -0.0231
      9 C         142.7692  138.4086  164.4577 C.ar    1  UNL1       -0.0013
     10 C         142.6814  138.4947  165.9527 C.ar    1  UNL1        0.0388
     11 C         142.8801  139.8125  166.6410 C.ar    1  UNL1        0.1640
     12 O         142.8525  140.2028  168.0891 O.2     1  UNL1       -0.4384
     13 C         143.1008  139.3358  162.1830 C.3     1  UNL1        0.0434
     14 C         143.3558  140.2740  161.0406 C.3     1  UNL1        0.0768
     15 N         143.6286  141.7482  161.0843 N.3     1  UNL1       -0.2720
     16 C         143.7139  142.6486  162.2809 C.3     1  UNL1        0.0769
     17 C         143.5474  142.2970  163.7296 C.3     1  UNL1        0.0450
     18 C         141.9481  143.1466  169.9688 C.3     1  UNL1        0.0102
     19 C         143.1860  142.4864  169.4379 C.3     1  UNL1        0.0853
     20 S         140.3604  143.6192  159.6504 S.3     1  UNL1       -0.0756
     21 C         140.1637  143.0625  161.0293 C.ar    1  UNL1        0.1932
     22 N         140.2225  143.8401  162.3107 N.ar    1  UNL1       -0.1221
     23 N         139.9689  142.8887  163.4423 N.ar    1  UNL1       -0.1282
     24 C         139.7533  141.5232  162.8603 C.ar    1  UNL1        0.1669
     25 N         139.8737  141.6305  161.3689 N.ar    1  UNL1       -0.2884
     26 C         139.7294  140.5038  160.3894 C.3     1  UNL1        0.1340
     27 C         139.4674  140.2702  163.6338 C.ar    1  UNL1        0.0374
     28 C         139.1883  138.9877  162.9076 C.ar    1  UNL1        0.0031
     29 C         138.9025  137.7347  163.6811 C.ar    1  UNL1        0.0016
     30 C         138.8957  137.7641  165.1807 C.ar    1  UNL1        0.0191
     31 C         139.1748  139.0466  165.9069 C.ar    1  UNL1        0.0810
     32 N         139.1681  139.0761  167.4066 N.ar    1  UNL1       -0.2497
     33 C         139.4472  140.3585  168.1329 C.ar    1  UNL1        0.0593
     34 C         139.4405  140.3880  169.6326 C.3     1  UNL1        0.0521
     35 C         139.7330  141.6115  167.3593 C.ar    1  UNL1        0.0147
     36 C         139.7398  141.5821  165.8596 C.ar    1  UNL1        0.0028
     37 C         139.4607  140.2996  165.1334 C.ar    1  UNL1        0.0206
@<TRIPOS>BOND
     1    18    19    1
     2    19     4    1
     3     4     5   ar
     4     5     6   ar
     5     6     7   ar
     6     7     8   ar
     7     8     9   ar
     8     9    10   ar
     9    10    11   ar
    10    11    12   ar
    11     8    13    1
    12    13    14    1
    13    14    15    1
    14    15     3    1
    15     3     2    1
    16     2     1    1
    17     1    20    1
    18    20    21    1
    19    21    22   ar
    20    22    23   ar
    21    23    24   ar
    22    24    27    1
    23    27    28   ar
    24    28    29   ar
    25    29    30   ar
    26    30    31   ar
    27    31    32   ar
    28    32    33   ar
    29    33    34    1
    30    33    35   ar
    31    35    36   ar
    32    36    37   ar
    33    24    25   ar
    34    25    26    1
    35    15    16    1
    36    16    17    1
    37    12     4   ar
    38    25    21   ar
    39    11     6   ar
    40    37    27   ar
    41    17     7    1
    42    37    31   ar
@<TRIPOS>MOLECULE
*****
 37 42 0 0 0
SMALL
GASTEIGER

@<TRIPOS>ATOM
      1 C         139.7875  143.7153  157.2853 C.3     1  UNL1        0.0666
      2 C         139.3805  142.4747  158.0237 C.3     1  UNL1        0.0294
      3 C         138.3772  142.5588  159.1358 C.3     1  UNL1        0.0730
      4 C         139.6876  140.5426  167.2726 C.ar    1  UNL1        0.2057
      5 N         139.5103  141.2767  165.9765 N.ar    1  UNL1       -0.2124
      6 C         139.2402  140.2640  164.9035 C.ar    1  UNL1        0.1143
      7 C         138.9861  140.4045  163.4318 C.ar    1  UNL1       -0.0040
      8 C         138.7425  139.1851  162.5930 C.ar    1  UNL1       -0.0231
      9 C         138.7528  137.8252  163.2258 C.ar    1  UNL1       -0.0013
     10 C         139.0069  137.6846  164.6974 C.ar    1  UNL1        0.0388
     11 C         139.2506  138.9041  165.5363 C.ar    1  UNL1        0.1640
     12 O         139.5271  139.0763  167.0005 O.2     1  UNL1       -0.4384
     13 C         138.4712  139.1021  161.1200 C.3     1  UNL1        0.0434
     14 C         138.3766  140.2181  160.1221 C.3     1  UNL1        0.0768
     15 N         138.5299  141.6925  160.3508 N.3     1  UNL1       -0.2720
     16 C         138.8157  142.4154  161.6337 C.3     1  UNL1        0.0769
     17 C         139.0187  141.8421  163.0049 C.3     1  UNL1        0.0450
     18 C         139.2588  140.6789  169.8314 C.3     1  UNL1        0.0102
     19 C         139.9750  141.1655  168.6066 C.3     1  UNL1        0.0853
     20 S         140.8992  144.5721  157.8141 S.3     1  UNL1       -0.0756
     21 C         141.8595  144.0161  158.8234 C.ar    1  UNL1        0.1932
     22 N         143.0421  143.1423  158.5272 N.ar    1  UNL1       -0.1221
     23 N         143.7193  142.8224  159.8268 N.ar    1  UNL1       -0.1282
     24 C         142.9552  143.4986  160.9263 C.ar    1  UNL1        0.1669
     25 N         141.8057  144.2364  160.3062 N.ar    1  UNL1       -0.2884
     26 C         140.7823  145.0513  161.0401 C.3     1  UNL1        0.1340
     27 C         143.2829  143.4462  162.3891 C.ar    1  UNL1        0.0374
     28 C         143.7521  144.6825  163.0974 C.ar    1  UNL1        0.0031
     29 C         144.0799  144.6301  164.5602 C.ar    1  UNL1        0.0016
     30 C         143.9384  143.3415  165.3148 C.ar    1  UNL1        0.0191
     31 C         143.4692  142.1053  164.6066 C.ar    1  UNL1        0.0810
     32 N         143.3278  140.8167  165.3612 N.ar    1  UNL1       -0.2497
     33 C         142.8585  139.5804  164.6531 C.ar    1  UNL1        0.0593
     34 C         142.7171  138.2918  165.4077 C.3     1  UNL1        0.0521
     35 C         142.5308  139.6328  163.1902 C.ar    1  UNL1        0.0147
     36 C         142.6723  140.9214  162.4356 C.ar    1  UNL1        0.0028
     37 C         143.1415  142.1577  163.1438 C.ar    1  UNL1        0.0206
@<TRIPOS>BOND
     1    18    19    1
     2    19     4    1
     3     4     5   ar
     4     5     6   ar
     5     6     7   ar
     6     7     8   ar
     7     8     9   ar
     8     9    10   ar
     9    10    11   ar
    10    11    12   ar
    11     8    13    1
    12    13    14    1
    13    14    15    1
    14    15     3    1
    15     3     2    1
    16     2     1    1
    17     1    20    1
    18    20    21    1
    19    21    22   ar
    20    22    23   ar
    21    23    24   ar
    22    24    27    1
    23    27    28   ar
    24    28    29   ar
    25    29    30   ar
    26    30    31   ar
    27    31    32   ar
    28    32    33   ar
    29    33    34    1
    30    33    35   ar
    31    35    36   ar
    32    36    37   ar
    33    24    25   ar
    34    25    26    1
    35    15    16    1
    36    16    17    1
    37    12     4   ar
    38    25    21   ar
    39    11     6   ar
    40    37    27   ar
    41    17     7    1
    42    37    31   ar
@<TRIPOS>MOLECULE
*****
 37 42 0 0 0
SMALL
GASTEIGER

@<TRIPOS>ATOM
      1 C         141.0096  140.1929  156.1904 C.3     1  UNL1        0.0666
      2 C         140.6216  141.6331  156.3489 C.3     1  UNL1        0.0294
      3 C         141.6005  142.6149  156.9218 C.3     1  UNL1        0.0730
      4 C         142.0851  141.4413  165.3109 C.ar    1  UNL1        0.2057
      5 N         142.0938  141.2526  163.8228 N.ar    1  UNL1       -0.2124
      6 C         141.7639  142.5703  163.1866 C.ar    1  UNL1        0.1143
      7 C         141.6296  142.9865  161.7517 C.ar    1  UNL1       -0.0040
      8 C         141.2828  144.4056  161.4118 C.ar    1  UNL1       -0.0231
      9 C         141.0702  145.4087  162.5066 C.ar    1  UNL1       -0.0013
     10 C         141.2045  144.9926  163.9415 C.ar    1  UNL1        0.0388
     11 C         141.5513  143.5734  164.2815 C.ar    1  UNL1        0.1640
     12 O         141.7499  142.8755  165.5944 O.2     1  UNL1       -0.4384
     13 C         141.1018  145.0256  160.0579 C.3     1  UNL1        0.0434
     14 C         141.2231  144.3794  158.7096 C.3     1  UNL1        0.0768
     15 N         141.5553  142.9538  158.3823 N.3     1  UNL1       -0.2720
     16 C         141.8482  141.8221  159.3223 C.3     1  UNL1        0.0769
     17 C         141.8813  141.8367  160.8219 C.3     1  UNL1        0.0450
     18 C         142.1180  138.9385  166.0077 C.3     1  UNL1        0.0102
     19 C         142.3629  140.3816  166.3356 C.3     1  UNL1        0.0853
     20 S         140.1243  139.1131  156.7384 S.3     1  UNL1       -0.0756
     21 C         139.3059  139.3670  157.9695 C.ar    1  UNL1        0.1932
     22 N         137.9174  139.9332  158.0039 N.ar    1  UNL1       -0.1221
     23 N         137.4856  140.0154  159.4381 N.ar    1  UNL1       -0.1282
     24 C         138.6074  139.5000  160.2901 C.ar    1  UNL1        0.1669
     25 N         139.7325  139.0992  159.3825 N.ar    1  UNL1       -0.2884
     26 C         141.0522  138.5305  159.8124 C.3     1  UNL1        0.1340
     27 C         138.6047  139.4024  161.7869 C.ar    1  UNL1        0.0374
     28 C         138.8060  138.0732  162.4522 C.ar    1  UNL1        0.0031
     29 C         138.8033  137.9756  163.9490 C.ar    1  UNL1        0.0016
     30 C         138.5992  139.2072  164.7806 C.ar    1  UNL1        0.0191
     31 C         138.3978  140.5364  164.1153 C.ar    1  UNL1        0.0810
     32 N         138.1937  141.7680  164.9467 N.ar    1  UNL1       -0.2497
     33 C         137.9923  143.0973  164.2815 C.ar    1  UNL1        0.0593
     34 C         137.7882  144.3289  165.1130 C.3     1  UNL1        0.0521
     35 C         137.9951  143.1948  162.7846 C.ar    1  UNL1        0.0147
     36 C         138.1992  141.9632  161.9531 C.ar    1  UNL1        0.0028
     37 C         138.4006  140.6340  162.6184 C.ar    1  UNL1        0.0206
@<TRIPOS>BOND
     1    18    19    1
     2    19     4    1
     3     4     5   ar
     4     5     6   ar
     5     6     7   ar
     6     7     8   ar
     7     8     9   ar
     8     9    10   ar
     9    10    11   ar
    10    11    12   ar
    11     8    13    1
    12    13    14    1
    13    14    15    1
    14    15     3    1
    15     3     2    1
    16     2     1    1
    17     1    20    1
    18    20    21    1
    19    21    22   ar
    20    22    23   ar
    21    23    24   ar
    22    24    27    1
    23    27    28   ar
    24    28    29   ar
    25    29    30   ar
    26    30    31   ar
    27    31    32   ar
    28    32    33   ar
    29    33    34    1
    30    33    35   ar
    31    35    36   ar
    32    36    37   ar
    33    24    25   ar
    34    25    26    1
    35    15    16    1
    36    16    17    1
    37    12     4   ar
    38    25    21   ar
    39    11     6   ar
    40    37    27   ar
    41    17     7    1
    42    37    31   ar
@<TRIPOS>MOLECULE
*****
 37 42 0 0 0
SMALL
GASTEIGER

@<TRIPOS>ATOM
      1 C         142.0442  144.4621  157.0795 C.3     1  UNL1        0.0666
      2 C         142.6804  143.1365  157.3759 C.3     1  UNL1        0.0294
      3 C         143.8527  143.0589  158.3086 C.3     1  UNL1        0.0730
      4 C         140.2640  138.4447  164.4583 C.ar    1  UNL1        0.2057
      5 N         140.5450  139.1841  163.1838 N.ar    1  UNL1       -0.2124
      6 C         141.9182  139.7787  163.2860 C.ar    1  UNL1        0.1143
      7 C         142.7251  140.6109  162.3339 C.ar    1  UNL1       -0.0040
      8 C         144.0997  141.0710  162.7193 C.ar    1  UNL1       -0.0231
      9 C         144.6676  140.6991  164.0569 C.ar    1  UNL1       -0.0013
     10 C         143.8608  139.8669  165.0091 C.ar    1  UNL1        0.0388
     11 C         142.4861  139.4068  164.6237 C.ar    1  UNL1        0.1640
     12 O         141.4637  138.5823  165.3482 O.2     1  UNL1       -0.4384
     13 C         145.0647  141.9014  161.9261 C.3     1  UNL1        0.0434
     14 C         144.8933  142.4768  160.5514 C.3     1  UNL1        0.0768
     15 N         143.7147  142.3638  159.6306 N.3     1  UNL1       -0.2720
     16 C         142.4163  141.6476  159.8569 C.3     1  UNL1        0.0769
     17 C         141.9759  140.8675  161.0600 C.3     1  UNL1        0.0450
     18 C         138.2614  138.0010  166.0530 C.3     1  UNL1        0.0102
     19 C         139.0045  137.6986  164.7856 C.3     1  UNL1        0.0853
     20 S         140.7526  144.8391  157.7425 S.3     1  UNL1       -0.0756
     21 C         140.6088  144.7136  159.2304 C.ar    1  UNL1        0.1932
     22 N         141.2682  145.5865  160.2566 N.ar    1  UNL1       -0.1221
     23 N         140.8473  145.1056  161.6137 N.ar    1  UNL1       -0.1282
     24 C         139.9277  143.9354  161.4261 C.ar    1  UNL1        0.1669
     25 N         139.7803  143.6932  159.9531 N.ar    1  UNL1       -0.2884
     26 C         138.9502  142.6191  159.3150 C.3     1  UNL1        0.1340
     27 C         139.2709  143.1461  162.5194 C.ar    1  UNL1        0.0374
     28 C         137.8799  142.6173  162.3310 C.ar    1  UNL1        0.0031
     29 C         137.2230  141.8280  163.4244 C.ar    1  UNL1        0.0016
     30 C         137.9571  141.5675  164.7062 C.ar    1  UNL1        0.0191
     31 C         139.3481  142.0963  164.8947 C.ar    1  UNL1        0.0810
     32 N         140.0822  141.8358  166.1765 N.ar    1  UNL1       -0.2497
     33 C         141.4732  142.3645  166.3651 C.ar    1  UNL1        0.0593
     34 C         142.2074  142.1040  167.6469 C.3     1  UNL1        0.0521
     35 C         142.1301  143.1539  165.2716 C.ar    1  UNL1        0.0147
     36 C         141.3959  143.4144  163.9898 C.ar    1  UNL1        0.0028
     37 C         140.0049  142.8856  163.8013 C.ar    1  UNL1        0.0206
@<TRIPOS>BOND
     1    18    19    1
     2    19     4    1
     3     4     5   ar
     4     5     6   ar
     5     6     7   ar
     6     7     8   ar
     7     8     9   ar
     8     9    10   ar
     9    10    11   ar
    10    11    12   ar
    11     8    13    1
    12    13    14    1
    13    14    15    1
    14    15     3    1
    15     3     2    1
    16     2     1    1
    17     1    20    1
    18    20    21    1
    19    21    22   ar
    20    22    23   ar
    21    23    24   ar
    22    24    27    1
    23    27    28   ar
    24    28    29   ar
    25    29    30   ar
    26    30    31   ar
    27    31    32   ar
    28    32    33   ar
    29    33    34    1
    30    33    35   ar
    31    35    36   ar
    32    36    37   ar
    33    24    25   ar
    34    25    26    1
    35    15    16    1
    36    16    17    1
    37    12     4   ar
    38    25    21   ar
    39    11     6   ar
    40    37    27   ar
    41    17     7    1
    42    37    31   ar
