@<TRIPOS>MOLECULE
*****
 30 33 0 0 0
SMALL
GASTEIGER

@<TRIPOS>ATOM
      1 C         141.5036  139.4831  166.8082 C.ar    1  UNL1        0.0659
      2 C         140.0813  139.8163  167.1488 C.ar    1  UNL1        0.0159
      3 C         139.0477  139.8896  166.0642 C.ar    1  UNL1        0.0014
      4 C         139.4365  139.6298  164.6390 C.ar    1  UNL1        0.0032
      5 C         138.2586  139.7534  163.7185 C.ar    1  UNL1        0.0016
      6 C         138.2122  139.5743  162.2299 C.ar    1  UNL1        0.0192
      7 C         139.3321  139.2273  161.2943 C.ar    1  UNL1        0.0844
      8 N         138.8546  139.1449  159.8747 N.ar    1  UNL1       -0.2437
      9 C         139.8200  138.8089  158.7769 C.ar    1  UNL1        0.0989
     10 C         141.2630  138.5554  159.0988 C.ar    1  UNL1        0.0223
     11 C         141.7405  138.6378  160.5183 C.ar    1  UNL1        0.0063
     12 C         140.7751  138.9738  161.6160 C.ar    1  UNL1        0.0566
     13 C         141.4545  139.0046  162.9531 C.ar    1  UNL1        0.1970
     14 O         142.9239  138.7037  162.9434 O.2     1  UNL1       -0.2865
     15 C         140.8587  139.2966  164.2984 C.ar    1  UNL1        0.0403
     16 C         141.8923  139.2232  165.3830 C.ar    1  UNL1        0.0191
     17 C         142.2285  138.2194  158.0011 C.ar    1  UNL1        0.0411
     18 C         143.1473  139.1825  157.3096 C.ar    1  UNL1        0.1217
     19 N         143.9313  138.4197  156.2832 N.ar    1  UNL1       -0.1676
     20 N         143.4970  136.9851  156.3403 N.ar    1  UNL1       -0.2473
     21 C         144.0228  135.8700  155.4858 C.3     1  UNL1        0.1538
     22 C         142.4446  136.8613  157.4020 C.ar    1  UNL1        0.0967
     23 N         142.5371  139.4097  167.8928 N.pl3   1  UNL1       -0.2052
     24 H         143.1853  138.6688  167.9058 H       1  UNL1        0.1748
     25 S         142.5831  140.4651  168.9577 S.O2    1  UNL1        0.1131
     26 O         142.1950  139.4445  169.9860 O.2     1  UNL1       -0.1379
     27 O         142.9711  141.4858  167.9293 O.2     1  UNL1       -0.1379
     28 C         143.7216  142.5484  170.0132 C.3     1  UNL1        0.1163
     29 N         142.6290  141.5207  170.0225 N.3     1  UNL1       -0.1399
     30 C         141.5824  141.5484  171.0966 C.3     1  UNL1        0.1163
@<TRIPOS>BOND
     1    28    29    1
     2    29    30    1
     3    29    25    1
     4    25    26    2
     5    25    27    2
     6    25    23    1
     7    23     1    1
     8     1     2   ar
     9     2     3   ar
    10     3     4   ar
    11     4     5   ar
    12     5     6   ar
    13     6     7   ar
    14     7     8   ar
    15     8     9   ar
    16     9    10   ar
    17    10    17    1
    18    17    18   ar
    19    18    19   ar
    20    19    20   ar
    21    20    21    1
    22    20    22   ar
    23    10    11   ar
    24    11    12   ar
    25    12    13   ar
    26    13    14    2
    27    13    15   ar
    28    15    16   ar
    29    16     1   ar
    30    15     4   ar
    31    12     7   ar
    32    22    17   ar
    33    23    24    1
@<TRIPOS>MOLECULE
*****
 30 33 0 0 0
SMALL
GASTEIGER

@<TRIPOS>ATOM
      1 C         139.5485  140.2951  167.1050 C.ar    1  UNL1        0.0659
      2 C         138.5314  139.1945  167.0406 C.ar    1  UNL1        0.0159
      3 C         138.3426  138.4213  165.7691 C.ar    1  UNL1        0.0014
      4 C         139.1707  138.7487  164.5622 C.ar    1  UNL1        0.0032
      5 C         138.8252  137.8613  163.4033 C.ar    1  UNL1        0.0016
      6 C         139.4114  137.8553  162.0226 C.ar    1  UNL1        0.0192
      7 C         140.4879  138.7352  161.4598 C.ar    1  UNL1        0.0844
      8 N         140.7800  138.3963  160.0280 N.ar    1  UNL1       -0.2437
      9 C         141.8283  139.1607  159.2752 C.ar    1  UNL1        0.0989
     10 C         142.5845  140.2640  159.9541 C.ar    1  UNL1        0.0223
     11 C         142.2924  140.6029  161.3857 C.ar    1  UNL1        0.0063
     12 C         141.2441  139.8385  162.1386 C.ar    1  UNL1        0.0566
     13 C         141.1105  140.3343  163.5480 C.ar    1  UNL1        0.1970
     14 O         142.0200  141.4646  163.9292 O.2     1  UNL1       -0.2865
     15 C         140.1878  139.8493  164.6266 C.ar    1  UNL1        0.0403
     16 C         140.3767  140.6225  165.8980 C.ar    1  UNL1        0.0191
     17 C         143.6328  141.0284  159.2012 C.ar    1  UNL1        0.0411
     18 C         144.3178  142.2786  159.6678 C.ar    1  UNL1        0.1217
     19 N         145.2885  142.6997  158.6045 N.ar    1  UNL1       -0.1676
     20 N         145.2034  141.7097  157.4808 N.ar    1  UNL1       -0.2473
     21 C         146.0014  141.7462  156.2113 C.3     1  UNL1        0.1538
     22 C         144.1801  140.6768  157.8497 C.ar    1  UNL1        0.0967
     23 N         139.7374  141.0683  168.3764 N.pl3   1  UNL1       -0.2052
     24 H         138.9753  141.5408  168.7830 H       1  UNL1        0.1748
     25 S         141.0872  141.1217  169.0283 S.O2    1  UNL1        0.1131
     26 O         140.9096  139.7127  169.5112 O.2     1  UNL1       -0.1379
     27 O         141.2648  142.5306  168.5454 O.2     1  UNL1       -0.1379
     28 C         142.8766  140.0639  170.5869 C.3     1  UNL1        0.1163
     29 N         142.4371  141.1750  169.6802 N.3     1  UNL1       -0.1399
     30 C         143.3475  142.3396  169.4253 C.3     1  UNL1        0.1163
@<TRIPOS>BOND
     1    28    29    1
     2    29    30    1
     3    29    25    1
     4    25    26    2
     5    25    27    2
     6    25    23    1
     7    23     1    1
     8     1     2   ar
     9     2     3   ar
    10     3     4   ar
    11     4     5   ar
    12     5     6   ar
    13     6     7   ar
    14     7     8   ar
    15     8     9   ar
    16     9    10   ar
    17    10    17    1
    18    17    18   ar
    19    18    19   ar
    20    19    20   ar
    21    20    21    1
    22    20    22   ar
    23    10    11   ar
    24    11    12   ar
    25    12    13   ar
    26    13    14    2
    27    13    15   ar
    28    15    16   ar
    29    16     1   ar
    30    15     4   ar
    31    12     7   ar
    32    22    17   ar
    33    23    24    1
@<TRIPOS>MOLECULE
*****
 30 33 0 0 0
SMALL
GASTEIGER

@<TRIPOS>ATOM
      1 C         142.2604  144.1010  160.1471 C.ar    1  UNL1        0.0659
      2 C         142.9486  143.1996  159.1654 C.ar    1  UNL1        0.0159
      3 C         143.4993  141.8796  159.6176 C.ar    1  UNL1        0.0014
      4 C         143.3617  141.4611  161.0514 C.ar    1  UNL1        0.0032
      5 C         143.9772  140.1143  161.2906 C.ar    1  UNL1        0.0016
      6 C         144.0566  139.3363  162.5706 C.ar    1  UNL1        0.0192
      7 C         143.5400  139.7130  163.9276 C.ar    1  UNL1        0.0844
      8 N         143.8293  138.6447  164.9400 N.ar    1  UNL1       -0.2437
      9 C         143.3950  138.8241  166.3645 C.ar    1  UNL1        0.0989
     10 C         142.6715  140.0718  166.7766 C.ar    1  UNL1        0.0223
     11 C         142.3822  141.1400  165.7641 C.ar    1  UNL1        0.0063
     12 C         142.8165  140.9606  164.3396 C.ar    1  UNL1        0.0566
     13 C         142.4309  142.1398  163.4964 C.ar    1  UNL1        0.1970
     14 O         141.7069  143.2420  164.2113 O.2     1  UNL1       -0.2865
     15 C         142.6735  142.3625  162.0331 C.ar    1  UNL1        0.0403
     16 C         142.1229  143.6825  161.5809 C.ar    1  UNL1        0.0191
     17 C         142.2372  140.2512  168.2011 C.ar    1  UNL1        0.0411
     18 C         142.4493  139.2720  169.3174 C.ar    1  UNL1        0.1217
     19 N         141.8577  139.8569  170.5657 N.ar    1  UNL1       -0.1676
     20 N         141.2801  141.1976  170.2207 N.ar    1  UNL1       -0.2473
     21 C         140.5892  142.1307  171.1704 C.3     1  UNL1        0.1538
     22 C         141.5146  141.4412  168.7593 C.ar    1  UNL1        0.0967
     23 N         141.7098  145.4210  159.6950 N.pl3   1  UNL1       -0.2052
     24 H         141.6243  146.1640  160.3352 H       1  UNL1        0.1748
     25 S         141.2894  145.6090  158.2674 S.O2    1  UNL1        0.1131
     26 O         142.5950  146.2858  157.9721 O.2     1  UNL1       -0.1379
     27 O         139.9839  144.9321  158.5628 O.2     1  UNL1       -0.1379
     28 C         139.6354  146.5876  156.5191 C.3     1  UNL1        0.1163
     29 N         140.8690  145.7969  156.8398 N.3     1  UNL1       -0.1399
     30 C         141.6823  145.1941  155.7329 C.3     1  UNL1        0.1163
@<TRIPOS>BOND
     1    28    29    1
     2    29    30    1
     3    29    25    1
     4    25    26    2
     5    25    27    2
     6    25    23    1
     7    23     1    1
     8     1     2   ar
     9     2     3   ar
    10     3     4   ar
    11     4     5   ar
    12     5     6   ar
    13     6     7   ar
    14     7     8   ar
    15     8     9   ar
    16     9    10   ar
    17    10    17    1
    18    17    18   ar
    19    18    19   ar
    20    19    20   ar
    21    20    21    1
    22    20    22   ar
    23    10    11   ar
    24    11    12   ar
    25    12    13   ar
    26    13    14    2
    27    13    15   ar
    28    15    16   ar
    29    16     1   ar
    30    15     4   ar
    31    12     7   ar
    32    22    17   ar
    33    23    24    1
@<TRIPOS>MOLECULE
*****
 30 33 0 0 0
SMALL
GASTEIGER

@<TRIPOS>ATOM
      1 C         140.7772  139.8926  166.7158 C.ar    1  UNL1        0.0659
      2 C         142.2055  139.7348  167.1460 C.ar    1  UNL1        0.0159
      3 C         143.2649  139.4254  166.1302 C.ar    1  UNL1        0.0014
      4 C         142.8961  139.2738  164.6842 C.ar    1  UNL1        0.0032
      5 C         144.0983  138.9673  163.8412 C.ar    1  UNL1        0.0016
      6 C         144.1692  138.7429  162.3598 C.ar    1  UNL1        0.0192
      7 C         143.0553  138.7696  161.3555 C.ar    1  UNL1        0.0844
      8 N         143.5597  138.4924  159.9703 N.ar    1  UNL1       -0.2437
      9 C         142.6042  138.4729  158.8141 C.ar    1  UNL1        0.0989
     10 C         141.1443  138.7306  159.0432 C.ar    1  UNL1        0.0223
     11 C         140.6400  139.0078  160.4284 C.ar    1  UNL1        0.0063
     12 C         141.5955  139.0273  161.5845 C.ar    1  UNL1        0.0566
     13 C         140.8890  139.3219  162.8745 C.ar    1  UNL1        0.1970
     14 O         139.4078  139.5350  162.7713 O.2     1  UNL1       -0.2865
     15 C         141.4678  139.4316  164.2540 C.ar    1  UNL1        0.0403
     16 C         140.4084  139.7410  165.2698 C.ar    1  UNL1        0.0191
     17 C         140.1888  138.7110  157.8871 C.ar    1  UNL1        0.0411
     18 C         139.1391  139.7414  157.5934 C.ar    1  UNL1        0.1217
     19 N         138.4168  139.3249  156.3464 N.ar    1  UNL1       -0.1676
     20 N         139.0201  138.0370  155.8695 N.ar    1  UNL1       -0.2473
     21 C         138.6018  137.2643  154.6539 C.3     1  UNL1        0.1538
     22 C         140.1153  137.6577  156.8217 C.ar    1  UNL1        0.0967
     23 N         139.7178  140.2020  167.7316 N.pl3   1  UNL1       -0.2052
     24 H         138.7840  139.9380  167.5651 H       1  UNL1        0.1748
     25 S         140.0809  140.9136  169.0011 S.O2    1  UNL1        0.1131
     26 O         139.8192  139.6585  169.7795 O.2     1  UNL1       -0.1379
     27 O         140.3426  142.1688  168.2227 O.2     1  UNL1       -0.1379
     28 C         139.7415  142.8966  170.6452 C.3     1  UNL1        0.1163
     29 N         140.4441  141.6253  170.2706 N.3     1  UNL1       -0.1399
     30 C         141.5099  141.0658  171.1656 C.3     1  UNL1        0.1163
@<TRIPOS>BOND
     1    28    29    1
     2    29    30    1
     3    29    25    1
     4    25    26    2
     5    25    27    2
     6    25    23    1
     7    23     1    1
     8     1     2   ar
     9     2     3   ar
    10     3     4   ar
    11     4     5   ar
    12     5     6   ar
    13     6     7   ar
    14     7     8   ar
    15     8     9   ar
    16     9    10   ar
    17    10    17    1
    18    17    18   ar
    19    18    19   ar
    20    19    20   ar
    21    20    21    1
    22    20    22   ar
    23    10    11   ar
    24    11    12   ar
    25    12    13   ar
    26    13    14    2
    27    13    15   ar
    28    15    16   ar
    29    16     1   ar
    30    15     4   ar
    31    12     7   ar
    32    22    17   ar
    33    23    24    1
@<TRIPOS>MOLECULE
*****
 30 33 0 0 0
SMALL
GASTEIGER

@<TRIPOS>ATOM
      1 C         140.8052  140.9845  166.3819 C.ar    1  UNL1        0.0659
      2 C         140.1076  142.2619  166.7447 C.ar    1  UNL1        0.0159
      3 C         140.0576  143.3943  165.7622 C.ar    1  UNL1        0.0014
      4 C         140.7051  143.2493  164.4170 C.ar    1  UNL1        0.0032
      5 C         140.5398  144.4914  163.5926 C.ar    1  UNL1        0.0016
      6 C         141.0314  144.7629  162.2016 C.ar    1  UNL1        0.0192
      7 C         141.8095  143.8593  161.2916 C.ar    1  UNL1        0.0844
      8 N         142.1013  144.5233  159.9786 N.ar    1  UNL1       -0.2437
      9 C         142.8720  143.7890  158.9218 C.ar    1  UNL1        0.0989
     10 C         143.3509  142.3907  159.1780 C.ar    1  UNL1        0.0223
     11 C         143.0590  141.7268  160.4910 C.ar    1  UNL1        0.0063
     12 C         142.2883  142.4611  161.5478 C.ar    1  UNL1        0.0566
     13 C         142.1072  141.6211  162.7773 C.ar    1  UNL1        0.1970
     14 O         142.7106  140.2489  162.7226 O.2     1  UNL1       -0.2865
     15 C         141.4026  141.9719  164.0542 C.ar    1  UNL1        0.0403
     16 C         141.4527  140.8395  165.0366 C.ar    1  UNL1        0.0191
     17 C         144.1215  141.6564  158.1212 C.ar    1  UNL1        0.0411
     18 C         143.8966  140.2368  157.6922 C.ar    1  UNL1        0.1217
     19 N         144.8886  139.9158  156.6137 N.ar    1  UNL1       -0.1676
     20 N         145.7265  141.1371  156.3761 N.ar    1  UNL1       -0.2473
     21 C         146.8424  141.2608  155.3816 C.3     1  UNL1        0.1538
     22 C         145.2524  142.2128  157.3079 C.ar    1  UNL1        0.0967
     23 N         140.8553  139.8521  167.3643 N.pl3   1  UNL1       -0.2052
     24 H         140.6128  138.9416  167.0788 H       1  UNL1        0.1748
     25 S         141.2748  140.1069  168.7817 S.O2    1  UNL1        0.1131
     26 O         139.8900  139.7731  169.2516 O.2     1  UNL1       -0.1379
     27 O         142.6596  140.4407  168.3118 O.2     1  UNL1       -0.1379
     28 C         143.0493  139.9236  170.6705 C.3     1  UNL1        0.1163
     29 N         141.6944  140.3617  170.1992 N.3     1  UNL1       -0.1399
     30 C         140.7590  141.0546  171.1452 C.3     1  UNL1        0.1163
@<TRIPOS>BOND
     1    28    29    1
     2    29    30    1
     3    29    25    1
     4    25    26    2
     5    25    27    2
     6    25    23    1
     7    23     1    1
     8     1     2   ar
     9     2     3   ar
    10     3     4   ar
    11     4     5   ar
    12     5     6   ar
    13     6     7   ar
    14     7     8   ar
    15     8     9   ar
    16     9    10   ar
    17    10    17    1
    18    17    18   ar
    19    18    19   ar
    20    19    20   ar
    21    20    21    1
    22    20    22   ar
    23    10    11   ar
    24    11    12   ar
    25    12    13   ar
    26    13    14    2
    27    13    15   ar
    28    15    16   ar
    29    16     1   ar
    30    15     4   ar
    31    12     7   ar
    32    22    17   ar
    33    23    24    1
@<TRIPOS>MOLECULE
*****
 30 33 0 0 0
SMALL
GASTEIGER

@<TRIPOS>ATOM
      1 C         140.0109  141.8894  166.6393 C.ar    1  UNL1        0.0659
      2 C         139.6842  140.4863  167.0572 C.ar    1  UNL1        0.0159
      3 C         139.1994  139.4948  166.0414 C.ar    1  UNL1        0.0014
      4 C         139.0414  139.9064  164.6076 C.ar    1  UNL1        0.0032
      5 C         138.5476  138.7698  163.7625 C.ar    1  UNL1        0.0016
      6 C         138.2585  138.7556  162.2907 C.ar    1  UNL1        0.0192
      7 C         138.3918  139.8744  161.3005 C.ar    1  UNL1        0.0844
      8 N         137.9973  139.4356  159.9214 N.ar    1  UNL1       -0.2437
      9 C         138.0582  140.4062  158.7794 C.ar    1  UNL1        0.0989
     10 C         138.5136  141.8157  159.0166 C.ar    1  UNL1        0.0223
     11 C         138.9081  142.2544  160.3956 C.ar    1  UNL1        0.0063
     12 C         138.8472  141.2838  161.5376 C.ar    1  UNL1        0.0566
     13 C         139.2817  141.9224  162.8235 C.ar    1  UNL1        0.1970
     14 O         139.6828  143.3648  162.7307 O.2     1  UNL1       -0.2865
     15 C         139.3682  141.3094  164.1897 C.ar    1  UNL1        0.0403
     16 C         139.8529  142.3009  165.2056 C.ar    1  UNL1        0.0191
     17 C         138.5746  142.7863  157.8746 C.ar    1  UNL1        0.0411
     18 C         137.6159  142.8540  156.7229 C.ar    1  UNL1        0.1217
     19 N         138.0537  143.9692  155.8203 N.ar    1  UNL1       -0.1676
     20 N         139.2829  144.5908  156.4141 N.ar    1  UNL1       -0.2473
     21 C         140.0547  145.7414  155.8393 C.3     1  UNL1        0.1538
     22 C         139.6048  143.8597  157.6838 C.ar    1  UNL1        0.0967
     23 N         140.4957  142.8809  167.6551 N.pl3   1  UNL1       -0.2052
     24 H         140.2206  143.8241  167.5926 H       1  UNL1        0.1748
     25 S         141.3996  142.4353  168.7662 S.O2    1  UNL1        0.1131
     26 O         140.2709  142.5819  169.7432 O.2     1  UNL1       -0.1379
     27 O         142.5282  142.2887  167.7892 O.2     1  UNL1       -0.1379
     28 C         143.7773  142.2573  169.7981 C.3     1  UNL1        0.1163
     29 N         142.3035  141.9897  169.8772 N.3     1  UNL1       -0.1399
     30 C         141.7336  141.2765  171.0674 C.3     1  UNL1        0.1163
@<TRIPOS>BOND
     1    28    29    1
     2    29    30    1
     3    29    25    1
     4    25    26    2
     5    25    27    2
     6    25    23    1
     7    23     1    1
     8     1     2   ar
     9     2     3   ar
    10     3     4   ar
    11     4     5   ar
    12     5     6   ar
    13     6     7   ar
    14     7     8   ar
    15     8     9   ar
    16     9    10   ar
    17    10    17    1
    18    17    18   ar
    19    18    19   ar
    20    19    20   ar
    21    20    21    1
    22    20    22   ar
    23    10    11   ar
    24    11    12   ar
    25    12    13   ar
    26    13    14    2
    27    13    15   ar
    28    15    16   ar
    29    16     1   ar
    30    15     4   ar
    31    12     7   ar
    32    22    17   ar
    33    23    24    1
@<TRIPOS>MOLECULE
*****
 30 33 0 0 0
SMALL
GASTEIGER

@<TRIPOS>ATOM
      1 C         141.3436  142.7192  166.4450 C.ar    1  UNL1        0.0659
      2 C         142.7292  142.2186  166.7266 C.ar    1  UNL1        0.0159
      3 C         143.7275  142.1079  165.6126 C.ar    1  UNL1        0.0014
      4 C         143.3403  142.4978  164.2170 C.ar    1  UNL1        0.0032
      5 C         144.4800  142.3117  163.2598 C.ar    1  UNL1        0.0016
      6 C         144.5156  142.5803  161.7844 C.ar    1  UNL1        0.0192
      7 C         143.4202  143.1014  160.9020 C.ar    1  UNL1        0.0844
      8 N         143.8756  143.2247  159.4781 N.ar    1  UNL1       -0.2437
      9 C         142.9295  143.7292  158.4291 C.ar    1  UNL1        0.0989
     10 C         141.5279  144.1104  158.8041 C.ar    1  UNL1        0.0223
     11 C         141.0726  143.9870  160.2279 C.ar    1  UNL1        0.0063
     12 C         142.0188  143.4825  161.2768 C.ar    1  UNL1        0.0566
     13 C         141.3665  143.4367  162.6269 C.ar    1  UNL1        0.1970
     14 O         139.9371  143.8889  162.6747 O.2     1  UNL1       -0.2865
     15 C         141.9546  142.9985  163.9353 C.ar    1  UNL1        0.0403
     16 C         140.9563  143.1092  165.0494 C.ar    1  UNL1        0.0191
     17 C         140.5818  144.6148  157.7551 C.ar    1  UNL1        0.0411
     18 C         139.6243  143.7807  156.9568 C.ar    1  UNL1        0.1217
     19 N         138.8777  144.6924  156.0286 N.ar    1  UNL1       -0.1676
     20 N         139.3739  146.0900  156.2532 N.ar    1  UNL1       -0.2473
     21 C         138.9001  147.3196  155.5367 C.3     1  UNL1        0.1538
     22 C         140.4271  146.0420  157.3203 C.ar    1  UNL1        0.0967
     23 N         140.3452  142.8299  167.5591 N.pl3   1  UNL1       -0.2052
     24 H         139.5396  143.3841  167.4448 H       1  UNL1        0.1748
     25 S         140.5743  142.0962  168.8471 S.O2    1  UNL1        0.1131
     26 O         140.0914  140.8270  168.2100 O.2     1  UNL1       -0.1379
     27 O         141.0573  143.3653  169.4842 O.2     1  UNL1       -0.1379
     28 C         141.8517  141.8416  171.0951 C.3     1  UNL1        0.1163
     29 N         140.8035  141.3624  170.1352 N.3     1  UNL1       -0.1399
     30 C         139.9842  140.1495  170.4634 C.3     1  UNL1        0.1163
@<TRIPOS>BOND
     1    28    29    1
     2    29    30    1
     3    29    25    1
     4    25    26    2
     5    25    27    2
     6    25    23    1
     7    23     1    1
     8     1     2   ar
     9     2     3   ar
    10     3     4   ar
    11     4     5   ar
    12     5     6   ar
    13     6     7   ar
    14     7     8   ar
    15     8     9   ar
    16     9    10   ar
    17    10    17    1
    18    17    18   ar
    19    18    19   ar
    20    19    20   ar
    21    20    21    1
    22    20    22   ar
    23    10    11   ar
    24    11    12   ar
    25    12    13   ar
    26    13    14    2
    27    13    15   ar
    28    15    16   ar
    29    16     1   ar
    30    15     4   ar
    31    12     7   ar
    32    22    17   ar
    33    23    24    1
@<TRIPOS>MOLECULE
*****
 30 33 0 0 0
SMALL
GASTEIGER

@<TRIPOS>ATOM
      1 C         140.2157  142.8808  165.8464 C.ar    1  UNL1        0.0659
      2 C         139.3343  144.0944  165.8582 C.ar    1  UNL1        0.0159
      3 C         139.2378  144.9631  164.6391 C.ar    1  UNL1        0.0014
      4 C         140.0227  144.6182  163.4083 C.ar    1  UNL1        0.0032
      5 C         139.7838  145.6113  162.3099 C.ar    1  UNL1        0.0016
      6 C         140.3675  145.6361  160.9283 C.ar    1  UNL1        0.0192
      7 C         141.3341  144.6738  160.3040 C.ar    1  UNL1        0.0844
      8 N         141.6646  145.0661  158.8944 N.ar    1  UNL1       -0.2437
      9 C         142.6167  144.2337  158.0879 C.ar    1  UNL1        0.0989
     10 C         143.2384  143.0090  158.6910 C.ar    1  UNL1        0.0223
     11 C         142.9080  142.6167  160.1005 C.ar    1  UNL1        0.0063
     12 C         141.9558  143.4492  160.9070 C.ar    1  UNL1        0.0566
     13 C         141.7644  142.8843  162.2834 C.ar    1  UNL1        0.1970
     14 O         142.5353  141.6338  162.5866 O.2     1  UNL1       -0.2865
     15 C         140.9041  143.4046  163.3966 C.ar    1  UNL1        0.0403
     16 C         141.0006  142.5359  164.6156 C.ar    1  UNL1        0.0191
     17 C         144.1906  142.1765  157.8845 C.ar    1  UNL1        0.0411
     18 C         144.1006  140.6951  157.6676 C.ar    1  UNL1        0.1217
     19 N         145.2544  140.2823  156.8023 N.ar    1  UNL1       -0.1676
     20 N         146.0574  141.5088  156.4845 N.ar    1  UNL1       -0.2473
     21 C         147.2997  141.5562  155.6453 C.3     1  UNL1        0.1538
     22 C         145.3999  142.6794  157.1534 C.ar    1  UNL1        0.0967
     23 N         140.3121  142.0121  167.0654 N.pl3   1  UNL1       -0.2052
     24 H         139.8009  142.2413  167.8750 H       1  UNL1        0.1748
     25 S         141.1875  140.7942  167.0511 S.O2    1  UNL1        0.1131
     26 O         140.0351  139.9717  166.5557 O.2     1  UNL1       -0.1379
     27 O         142.3400  141.6166  167.5465 O.2     1  UNL1       -0.1379
     28 C         142.2315  138.7885  165.7714 C.3     1  UNL1        0.1163
     29 N         142.0630  139.5762  167.0368 N.3     1  UNL1       -0.1399
     30 C         142.7700  139.1459  168.2878 C.3     1  UNL1        0.1163
@<TRIPOS>BOND
     1    28    29    1
     2    29    30    1
     3    29    25    1
     4    25    26    2
     5    25    27    2
     6    25    23    1
     7    23     1    1
     8     1     2   ar
     9     2     3   ar
    10     3     4   ar
    11     4     5   ar
    12     5     6   ar
    13     6     7   ar
    14     7     8   ar
    15     8     9   ar
    16     9    10   ar
    17    10    17    1
    18    17    18   ar
    19    18    19   ar
    20    19    20   ar
    21    20    21    1
    22    20    22   ar
    23    10    11   ar
    24    11    12   ar
    25    12    13   ar
    26    13    14    2
    27    13    15   ar
    28    15    16   ar
    29    16     1   ar
    30    15     4   ar
    31    12     7   ar
    32    22    17   ar
    33    23    24    1
@<TRIPOS>MOLECULE
*****
 30 33 0 0 0
SMALL
GASTEIGER

@<TRIPOS>ATOM
      1 C         142.9771  139.5655  159.9441 C.ar    1  UNL1        0.0659
      2 C         141.9747  138.7657  159.1660 C.ar    1  UNL1        0.0159
      3 C         140.7291  138.2673  159.8370 C.ar    1  UNL1        0.0014
      4 C         140.4859  138.5688  161.2861 C.ar    1  UNL1        0.0032
      5 C         139.1890  137.9813  161.7578 C.ar    1  UNL1        0.0016
      6 C         138.5741  138.0484  163.1244 C.ar    1  UNL1        0.0192
      7 C         139.1042  138.7197  164.3566 C.ar    1  UNL1        0.0844
      8 N         138.1722  138.5466  165.5190 N.ar    1  UNL1       -0.2437
      9 C         138.5162  139.1434  166.8515 C.ar    1  UNL1        0.0989
     10 C         139.7923  139.9133  167.0215 C.ar    1  UNL1        0.0223
     11 C         140.7243  140.0864  165.8591 C.ar    1  UNL1        0.0063
     12 C         140.3803  139.4896  164.5266 C.ar    1  UNL1        0.0566
     13 C         141.4413  139.7784  163.5063 C.ar    1  UNL1        0.1970
     14 O         142.6098  140.5834  163.9926 O.2     1  UNL1       -0.2865
     15 C         141.4883  139.3686  162.0642 C.ar    1  UNL1        0.0403
     16 C         142.7339  139.8669  161.3932 C.ar    1  UNL1        0.0191
     17 C         140.1363  140.5101  168.3540 C.ar    1  UNL1        0.0411
     18 C         139.3162  140.4047  169.6054 C.ar    1  UNL1        0.1217
     19 N         140.0339  141.1466  170.6939 N.ar    1  UNL1       -0.1676
     20 N         141.2976  141.7105  170.1150 N.ar    1  UNL1       -0.2473
     21 C         142.3186  142.5247  170.8528 C.3     1  UNL1        0.1538
     22 C         141.3608  141.3171  168.6689 C.ar    1  UNL1        0.0967
     23 N         144.2226  140.0638  159.2731 N.pl3   1  UNL1       -0.2052
     24 H         145.1052  139.8571  159.6574 H       1  UNL1        0.1748
     25 S         144.1236  140.8771  158.0166 S.O2    1  UNL1        0.1131
     26 O         144.6743  139.7260  157.2282 O.2     1  UNL1       -0.1379
     27 O         143.5729  142.0281  158.8051 O.2     1  UNL1       -0.1379
     28 C         142.6884  141.9188  156.1179 C.3     1  UNL1        0.1163
     29 N         144.0246  141.6904  156.7601 N.3     1  UNL1       -0.1399
     30 C         145.2617  142.2753  156.1458 C.3     1  UNL1        0.1163
@<TRIPOS>BOND
     1    28    29    1
     2    29    30    1
     3    29    25    1
     4    25    26    2
     5    25    27    2
     6    25    23    1
     7    23     1    1
     8     1     2   ar
     9     2     3   ar
    10     3     4   ar
    11     4     5   ar
    12     5     6   ar
    13     6     7   ar
    14     7     8   ar
    15     8     9   ar
    16     9    10   ar
    17    10    17    1
    18    17    18   ar
    19    18    19   ar
    20    19    20   ar
    21    20    21    1
    22    20    22   ar
    23    10    11   ar
    24    11    12   ar
    25    12    13   ar
    26    13    14    2
    27    13    15   ar
    28    15    16   ar
    29    16     1   ar
    30    15     4   ar
    31    12     7   ar
    32    22    17   ar
    33    23    24    1
