@<TRIPOS>MOLECULE
*****
 38 41 0 0 0
SMALL
GASTEIGER

@<TRIPOS>ATOM
      1 C         138.4918  141.9275  164.5898 C.3     1  UNL1        0.1287
      2 C         138.5406  141.2993  163.2285 C.ar    1  UNL1        0.1351
      3 N         137.3725  141.0931  162.3103 N.ar    1  UNL1       -0.2279
      4 C         137.8760  140.4333  161.0608 C.ar    1  UNL1        0.1171
      5 C         139.3552  140.2319  161.2067 C.ar    1  UNL1        0.0769
      6 N         139.7659  140.7671  162.5465 N.ar    1  UNL1       -0.3394
      7 H         140.6794  140.7687  162.9136 H       1  UNL1        0.1671
      8 C         140.2641  139.6052  160.1912 C.ar    1  UNL1        0.0172
      9 C         141.4112  138.7486  160.6387 C.ar    1  UNL1        0.0015
     10 C         142.3201  138.1220  159.6233 C.ar    1  UNL1        0.0015
     11 C         142.0819  138.3520  158.1603 C.ar    1  UNL1        0.0171
     12 C         140.9347  139.2086  157.7128 C.ar    1  UNL1        0.0015
     13 C         140.0259  139.8352  158.7282 C.ar    1  UNL1        0.0015
     14 C         142.9908  137.7253  157.1448 C.ar    1  UNL1        0.0754
     15 C         142.9421  136.3006  156.6780 C.ar    1  UNL1        0.0409
     16 C         144.0292  136.1080  155.6626 C.ar    1  UNL1        0.1214
     17 N         144.7498  137.4138  155.5017 N.ar    1  UNL1       -0.1711
     18 N         144.1080  138.4133  156.4177 N.ar    1  UNL1       -0.2757
     19 H         144.3734  139.3555  156.5233 H       1  UNL1        0.1889
     20 N         139.1268  141.2345  165.7587 N.am    1  UNL1       -0.2956
     21 C         140.6200  141.2165  165.8993 C.2     1  UNL1        0.2537
     22 O         141.4784  141.8915  164.8709 O.2     1  UNL1       -0.2695
     23 H         138.5634  140.7914  166.4337 H       1  UNL1        0.1501
     24 C         141.2550  140.5234  167.0683 C.ar    1  UNL1        0.1033
     25 C         142.5645  139.7921  167.0548 C.ar    1  UNL1        0.1105
     26 N         142.8107  139.2567  168.4342 N.ar    1  UNL1       -0.2346
     27 C         141.6533  139.6572  169.3003 C.ar    1  UNL1        0.1347
     28 S         140.6917  140.4401  168.4561 S.2     1  UNL1       -0.0599
     29 C         137.8082  143.2488  164.7820 C.3     1  UNL1        0.0273
     30 C         138.6127  144.4659  165.1303 C.3     1  UNL1        0.0022
     31 C         139.7729  144.8696  164.2695 C.3     1  UNL1        0.0006
     32 C         139.5637  145.1462  162.8102 C.3     1  UNL1        0.0096
     33 C         140.7450  145.3479  161.9081 C.3     1  UNL1        0.0850
     34 C         144.3846  143.8367  162.3766 C.3     1  UNL1        0.1107
     35 N         143.2484  144.8158  162.3549 N.am    1  UNL1       -0.3027
     36 C         141.8812  144.3688  161.9299 C.2     1  UNL1        0.2225
     37 O         141.6500  142.9427  161.5267 O.2     1  UNL1       -0.2751
     38 H         143.4001  145.7519  162.6195 H       1  UNL1        0.1495
@<TRIPOS>BOND
     1    34    35    1
     2    35    36   am
     3    36    37    2
     4    36    33    1
     5    33    32    1
     6    32    31    1
     7    31    30    1
     8    30    29    1
     9     1    29    1
    10     1    20    1
    11    20    21   am
    12    21    22    2
    13    21    24    1
    14    24    25   ar
    15    25    26   ar
    16    26    27   ar
    17    27    28   ar
    18     1     2    1
    19     2     3   ar
    20     3     4   ar
    21     4     5   ar
    22     5     8    1
    23     8     9   ar
    24     9    10   ar
    25    10    11   ar
    26    11    14    1
    27    14    15   ar
    28    15    16   ar
    29    16    17   ar
    30    17    18   ar
    31    11    12   ar
    32    12    13   ar
    33     5     6   ar
    34    28    24   ar
    35     6     2   ar
    36    13     8   ar
    37    18    14   ar
    38    35    38    1
    39    20    23    1
    40    18    19    1
    41     6     7    1
@<TRIPOS>MOLECULE
*****
 38 41 0 0 0
SMALL
GASTEIGER

@<TRIPOS>ATOM
      1 C         139.0593  141.9987  159.0786 C.3     1  UNL1        0.1287
      2 C         138.6693  141.2776  160.3347 C.ar    1  UNL1        0.1351
      3 N         137.6058  140.2265  160.4540 N.ar    1  UNL1       -0.2279
      4 C         137.5535  139.7803  161.8852 C.ar    1  UNL1        0.1171
      5 C         138.5847  140.5556  162.6504 C.ar    1  UNL1        0.0769
      6 N         139.2743  141.4810  161.6922 N.ar    1  UNL1       -0.3394
      7 H         139.9970  142.1112  161.9151 H       1  UNL1        0.1671
      8 C         138.8753  140.4280  164.1165 C.ar    1  UNL1        0.0172
      9 C         139.5470  141.5518  164.8485 C.ar    1  UNL1        0.0015
     10 C         139.8375  141.4241  166.3146 C.ar    1  UNL1        0.0015
     11 C         139.4564  140.1727  167.0485 C.ar    1  UNL1        0.0171
     12 C         138.7847  139.0490  166.3165 C.ar    1  UNL1        0.0015
     13 C         138.4941  139.1766  164.8505 C.ar    1  UNL1        0.0015
     14 C         139.7470  140.0451  168.5146 C.ar    1  UNL1        0.0754
     15 C         141.1075  140.0358  169.1462 C.ar    1  UNL1        0.0409
     16 C         140.9295  139.8894  170.6284 C.ar    1  UNL1        0.1214
     17 N         139.4589  139.8082  170.9128 N.ar    1  UNL1       -0.1711
     18 N         138.7281  139.9044  169.6064 N.ar    1  UNL1       -0.2757
     19 H         137.7512  139.8796  169.4866 H       1  UNL1        0.1889
     20 N         138.0714  142.1429  157.9591 N.am    1  UNL1       -0.2956
     21 C         137.8256  140.9966  157.0235 C.2     1  UNL1        0.2537
     22 O         138.5676  139.7060  157.2073 O.2     1  UNL1       -0.2695
     23 H         137.5844  142.9900  157.8385 H       1  UNL1        0.1501
     24 C         136.8377  141.1409  155.9040 C.ar    1  UNL1        0.1033
     25 C         135.3528  140.9560  156.0091 C.ar    1  UNL1        0.1105
     26 N         134.7587  141.1962  154.6529 N.ar    1  UNL1       -0.2346
     27 C         135.8763  141.5297  153.7096 C.ar    1  UNL1        0.1347
     28 S         137.1612  141.4955  154.4829 S.2     1  UNL1       -0.0599
     29 C         140.4373  142.5754  158.9419 C.3     1  UNL1        0.0273
     30 C         140.6161  143.9847  158.4602 C.3     1  UNL1        0.0022
     31 C         140.9413  145.0756  159.4370 C.3     1  UNL1        0.0006
     32 C         139.9966  145.3820  160.5611 C.3     1  UNL1        0.0096
     33 C         140.3901  145.0765  161.9759 C.3     1  UNL1        0.0850
     34 C         138.5532  144.9870  165.4926 C.3     1  UNL1        0.1107
     35 N         139.6099  145.2053  164.4507 N.am    1  UNL1       -0.3027
     36 C         139.3334  144.8582  163.0179 C.2     1  UNL1        0.2225
     37 O         138.0002  144.2928  162.6269 O.2     1  UNL1       -0.2751
     38 H         140.4850  145.5763  164.7072 H       1  UNL1        0.1495
@<TRIPOS>BOND
     1    34    35    1
     2    35    36   am
     3    36    37    2
     4    36    33    1
     5    33    32    1
     6    32    31    1
     7    31    30    1
     8    30    29    1
     9     1    29    1
    10     1    20    1
    11    20    21   am
    12    21    22    2
    13    21    24    1
    14    24    25   ar
    15    25    26   ar
    16    26    27   ar
    17    27    28   ar
    18     1     2    1
    19     2     3   ar
    20     3     4   ar
    21     4     5   ar
    22     5     8    1
    23     8     9   ar
    24     9    10   ar
    25    10    11   ar
    26    11    14    1
    27    14    15   ar
    28    15    16   ar
    29    16    17   ar
    30    17    18   ar
    31    11    12   ar
    32    12    13   ar
    33     5     6   ar
    34    28    24   ar
    35     6     2   ar
    36    13     8   ar
    37    18    14   ar
    38    35    38    1
    39    20    23    1
    40    18    19    1
    41     6     7    1
@<TRIPOS>MOLECULE
*****
 38 41 0 0 0
SMALL
GASTEIGER

@<TRIPOS>ATOM
      1 C         138.5812  139.6658  160.1373 C.3     1  UNL1        0.1287
      2 C         138.3546  140.3251  161.4654 C.ar    1  UNL1        0.1351
      3 N         137.2789  141.3211  161.7833 N.ar    1  UNL1       -0.2279
      4 C         137.4234  141.7158  163.2232 C.ar    1  UNL1        0.1171
      5 C         138.5884  140.9638  163.7953 C.ar    1  UNL1        0.0769
      6 N         139.1639  140.1043  162.7089 N.ar    1  UNL1       -0.3394
      7 H         139.9371  139.5012  162.7966 H       1  UNL1        0.1671
      8 C         139.0899  141.0552  165.2060 C.ar    1  UNL1        0.0172
      9 C         139.8171  142.2840  165.6654 C.ar    1  UNL1        0.0015
     10 C         140.3186  142.3754  167.0761 C.ar    1  UNL1        0.0015
     11 C         140.0929  141.2378  168.0274 C.ar    1  UNL1        0.0171
     12 C         139.3657  140.0090  167.5681 C.ar    1  UNL1        0.0015
     13 C         138.8642  139.9176  166.1574 C.ar    1  UNL1        0.0015
     14 C         140.5944  141.3292  169.4382 C.ar    1  UNL1        0.0754
     15 C         141.9426  140.8872  169.9251 C.ar    1  UNL1        0.0409
     16 C         142.0172  141.1634  171.3975 C.ar    1  UNL1        0.1214
     17 N         140.7151  141.7763  171.8207 N.ar    1  UNL1       -0.1711
     18 N         139.8358  141.8787  170.6098 N.ar    1  UNL1       -0.2757
     19 H         138.9213  142.2427  170.5878 H       1  UNL1        0.1889
     20 N         137.7711  140.0821  158.9454 N.am    1  UNL1       -0.2956
     21 C         138.0995  141.3550  158.2230 C.2     1  UNL1        0.2537
     22 O         139.2379  142.2116  158.6924 O.2     1  UNL1       -0.2695
     23 H         137.0240  139.5199  158.6374 H       1  UNL1        0.1501
     24 C         137.2894  141.7712  157.0311 C.ar    1  UNL1        0.1033
     25 C         137.4143  143.0693  156.2900 C.ar    1  UNL1        0.1105
     26 N         136.4143  143.0628  155.1720 N.ar    1  UNL1       -0.2346
     27 C         135.6713  141.7607  155.2222 C.ar    1  UNL1        0.1347
     28 S         136.2122  140.9624  156.3713 S.2     1  UNL1       -0.0599
     29 C         139.6178  138.5902  160.0010 C.3     1  UNL1        0.0273
     30 C         140.4752  138.5264  158.7719 C.3     1  UNL1        0.0022
     31 C         141.9673  138.4439  158.9018 C.3     1  UNL1        0.0006
     32 C         142.7028  139.4408  159.7475 C.3     1  UNL1        0.0096
     33 C         143.3331  139.0091  161.0384 C.3     1  UNL1        0.0850
     34 C         141.0717  137.1148  163.6930 C.3     1  UNL1        0.1107
     35 N         141.9290  137.3747  162.4899 N.am    1  UNL1       -0.3027
     36 C         142.4758  138.7492  162.2415 C.2     1  UNL1        0.2225
     37 O         142.1653  139.8637  163.1962 O.2     1  UNL1       -0.2751
     38 H         142.1327  136.6432  161.8633 H       1  UNL1        0.1495
@<TRIPOS>BOND
     1    34    35    1
     2    35    36   am
     3    36    37    2
     4    36    33    1
     5    33    32    1
     6    32    31    1
     7    31    30    1
     8    30    29    1
     9     1    29    1
    10     1    20    1
    11    20    21   am
    12    21    22    2
    13    21    24    1
    14    24    25   ar
    15    25    26   ar
    16    26    27   ar
    17    27    28   ar
    18     1     2    1
    19     2     3   ar
    20     3     4   ar
    21     4     5   ar
    22     5     8    1
    23     8     9   ar
    24     9    10   ar
    25    10    11   ar
    26    11    14    1
    27    14    15   ar
    28    15    16   ar
    29    16    17   ar
    30    17    18   ar
    31    11    12   ar
    32    12    13   ar
    33     5     6   ar
    34    28    24   ar
    35     6     2   ar
    36    13     8   ar
    37    18    14   ar
    38    35    38    1
    39    20    23    1
    40    18    19    1
    41     6     7    1
@<TRIPOS>MOLECULE
*****
 38 41 0 0 0
SMALL
GASTEIGER

@<TRIPOS>ATOM
      1 C         139.0466  141.6461  159.7373 C.3     1  UNL1        0.1287
      2 C         138.7175  141.4522  161.1878 C.ar    1  UNL1        0.1351
      3 N         137.3442  141.2730  161.7641 N.ar    1  UNL1       -0.2279
      4 C         137.4818  141.1135  163.2492 C.ar    1  UNL1        0.1171
      5 C         138.9402  141.1942  163.5909 C.ar    1  UNL1        0.0769
      6 N         139.7038  141.4035  162.3169 N.ar    1  UNL1       -0.3394
      7 H         140.6809  141.4932  162.2359 H       1  UNL1        0.1671
      8 C         139.5312  141.0847  164.9652 C.ar    1  UNL1        0.0172
      9 C         140.6940  141.9493  165.3526 C.ar    1  UNL1        0.0015
     10 C         141.2850  141.8398  166.7269 C.ar    1  UNL1        0.0015
     11 C         140.7130  140.8658  167.7139 C.ar    1  UNL1        0.0171
     12 C         139.5501  140.0012  167.3265 C.ar    1  UNL1        0.0015
     13 C         138.9592  140.1107  165.9522 C.ar    1  UNL1        0.0015
     14 C         141.3040  140.7563  169.0882 C.ar    1  UNL1        0.0754
     15 C         142.5486  140.0038  169.4554 C.ar    1  UNL1        0.0409
     16 C         142.7680  140.1625  170.9308 C.ar    1  UNL1        0.1214
     17 N         141.6589  141.0132  171.4754 N.ar    1  UNL1       -0.1711
     18 N         140.7542  141.3801  170.3366 N.ar    1  UNL1       -0.2757
     19 H         139.9421  141.9333  170.3979 H       1  UNL1        0.1889
     20 N         139.4848  140.4777  158.9050 N.am    1  UNL1       -0.2956
     21 C         140.8329  139.8599  159.1306 C.2     1  UNL1        0.2537
     22 O         141.7428  140.4105  160.1884 O.2     1  UNL1       -0.2695
     23 H         138.8876  140.1163  158.2107 H       1  UNL1        0.1501
     24 C         141.2712  138.6915  158.2983 C.ar    1  UNL1        0.1033
     25 C         140.4784  138.0427  157.2026 C.ar    1  UNL1        0.1105
     26 N         141.2964  136.9169  156.6427 N.ar    1  UNL1       -0.2346
     27 C         142.5948  136.8699  157.3924 C.ar    1  UNL1        0.1347
     28 S         142.5792  137.9667  158.4156 S.2     1  UNL1       -0.0599
     29 C         138.9374  143.0084  159.1191 C.3     1  UNL1        0.0273
     30 C         140.1251  143.9246  159.1084 C.3     1  UNL1        0.0022
     31 C         141.2427  143.7150  160.0866 C.3     1  UNL1        0.0006
     32 C         141.2978  144.5258  161.3474 C.3     1  UNL1        0.0096
     33 C         140.1745  145.4596  161.6883 C.3     1  UNL1        0.0850
     34 C         138.6465  144.8716  165.3033 C.3     1  UNL1        0.1107
     35 N         139.6146  145.2287  164.2147 N.am    1  UNL1       -0.3027
     36 C         139.2064  145.1025  162.7769 C.2     1  UNL1        0.2225
     37 O         137.8300  144.6191  162.4277 O.2     1  UNL1       -0.2751
     38 H         140.5180  145.5460  164.4439 H       1  UNL1        0.1495
@<TRIPOS>BOND
     1    34    35    1
     2    35    36   am
     3    36    37    2
     4    36    33    1
     5    33    32    1
     6    32    31    1
     7    31    30    1
     8    30    29    1
     9     1    29    1
    10     1    20    1
    11    20    21   am
    12    21    22    2
    13    21    24    1
    14    24    25   ar
    15    25    26   ar
    16    26    27   ar
    17    27    28   ar
    18     1     2    1
    19     2     3   ar
    20     3     4   ar
    21     4     5   ar
    22     5     8    1
    23     8     9   ar
    24     9    10   ar
    25    10    11   ar
    26    11    14    1
    27    14    15   ar
    28    15    16   ar
    29    16    17   ar
    30    17    18   ar
    31    11    12   ar
    32    12    13   ar
    33     5     6   ar
    34    28    24   ar
    35     6     2   ar
    36    13     8   ar
    37    18    14   ar
    38    35    38    1
    39    20    23    1
    40    18    19    1
    41     6     7    1
@<TRIPOS>MOLECULE
*****
 38 41 0 0 0
SMALL
GASTEIGER

@<TRIPOS>ATOM
      1 C         141.7443  140.6027  165.0009 C.3     1  UNL1        0.1287
      2 C         141.2620  141.8022  164.2404 C.ar    1  UNL1        0.1351
      3 N         140.7007  143.0582  164.8383 N.ar    1  UNL1       -0.2279
      4 C         140.3481  143.9886  163.7159 C.ar    1  UNL1        0.1171
      5 C         140.6913  143.3077  162.4242 C.ar    1  UNL1        0.0769
      6 N         141.2561  141.9564  162.7484 N.ar    1  UNL1       -0.3394
      7 H         141.5682  141.2881  162.0963 H       1  UNL1        0.1671
      8 C         140.5029  143.8779  161.0496 C.ar    1  UNL1        0.0172
      9 C         140.8499  145.3117  160.7783 C.ar    1  UNL1        0.0015
     10 C         140.6614  145.8818  159.4038 C.ar    1  UNL1        0.0015
     11 C         140.1259  145.0181  158.3005 C.ar    1  UNL1        0.0171
     12 C         139.7789  143.5843  158.5718 C.ar    1  UNL1        0.0015
     13 C         139.9674  143.0142  159.9463 C.ar    1  UNL1        0.0015
     14 C         139.9375  145.5883  156.9259 C.ar    1  UNL1        0.0754
     15 C         139.2975  144.8909  155.7622 C.ar    1  UNL1        0.0409
     16 C         139.3204  145.8275  154.5908 C.ar    1  UNL1        0.1214
     17 N         139.9745  147.1038  155.0305 N.ar    1  UNL1       -0.1711
     18 N         140.3559  146.9559  156.4737 N.ar    1  UNL1       -0.2757
     19 H         140.8025  147.6369  157.0269 H       1  UNL1        0.1889
     20 N         141.8049  140.6392  166.4992 N.am    1  UNL1       -0.2956
     21 C         140.5464  140.5046  167.3042 C.2     1  UNL1        0.2537
     22 O         139.2273  140.3334  166.6108 O.2     1  UNL1       -0.2695
     23 H         142.6706  140.7515  166.9543 H       1  UNL1        0.1501
     24 C         140.6070  140.5411  168.8025 C.ar    1  UNL1        0.1033
     25 C         139.4692  140.2578  169.7381 C.ar    1  UNL1        0.1105
     26 N         139.9751  140.4090  171.1421 N.ar    1  UNL1       -0.2346
     27 C         141.4254  140.7857  171.0743 C.ar    1  UNL1        0.1347
     28 S         141.8160  140.8674  169.6283 S.2     1  UNL1       -0.0599
     29 C         142.1661  139.3666  164.2631 C.3     1  UNL1        0.0273
     30 C         142.0835  138.0277  164.9343 C.3     1  UNL1        0.0022
     31 C         140.9373  137.1077  164.6341 C.3     1  UNL1        0.0006
     32 C         139.5318  137.6314  164.6475 C.3     1  UNL1        0.0096
     33 C         138.8491  137.9801  163.3582 C.3     1  UNL1        0.0850
     34 C         137.4762  141.6963  163.5922 C.3     1  UNL1        0.1107
     35 N         137.7460  140.2608  163.9337 N.am    1  UNL1       -0.3027
     36 C         138.5793  139.4156  163.0167 C.2     1  UNL1        0.2225
     37 O         139.1428  140.0057  161.7581 O.2     1  UNL1       -0.2751
     38 H         137.3761  139.8735  164.7598 H       1  UNL1        0.1495
@<TRIPOS>BOND
     1    34    35    1
     2    35    36   am
     3    36    37    2
     4    36    33    1
     5    33    32    1
     6    32    31    1
     7    31    30    1
     8    30    29    1
     9     1    29    1
    10     1    20    1
    11    20    21   am
    12    21    22    2
    13    21    24    1
    14    24    25   ar
    15    25    26   ar
    16    26    27   ar
    17    27    28   ar
    18     1     2    1
    19     2     3   ar
    20     3     4   ar
    21     4     5   ar
    22     5     8    1
    23     8     9   ar
    24     9    10   ar
    25    10    11   ar
    26    11    14    1
    27    14    15   ar
    28    15    16   ar
    29    16    17   ar
    30    17    18   ar
    31    11    12   ar
    32    12    13   ar
    33     5     6   ar
    34    28    24   ar
    35     6     2   ar
    36    13     8   ar
    37    18    14   ar
    38    35    38    1
    39    20    23    1
    40    18    19    1
    41     6     7    1
@<TRIPOS>MOLECULE
*****
 38 41 0 0 0
SMALL
GASTEIGER

@<TRIPOS>ATOM
      1 C         139.8789  140.8350  159.8389 C.3     1  UNL1        0.1287
      2 C         139.3193  140.8306  161.2305 C.ar    1  UNL1        0.1351
      3 N         137.8866  140.5897  161.6040 N.ar    1  UNL1       -0.2279
      4 C         137.7760  140.6766  163.0974 C.ar    1  UNL1        0.1171
      5 C         139.1402  140.9712  163.6469 C.ar    1  UNL1        0.0769
      6 N         140.0940  141.0664  162.4931 N.ar    1  UNL1       -0.3394
      7 H         141.0591  141.2513  162.5539 H       1  UNL1        0.1671
      8 C         139.4894  141.1409  165.0959 C.ar    1  UNL1        0.0172
      9 C         140.1105  142.4202  165.5728 C.ar    1  UNL1        0.0015
     10 C         140.4596  142.5898  167.0217 C.ar    1  UNL1        0.0015
     11 C         140.1876  141.4801  167.9936 C.ar    1  UNL1        0.0171
     12 C         139.5665  140.2008  167.5166 C.ar    1  UNL1        0.0015
     13 C         139.2174  140.0312  166.0678 C.ar    1  UNL1        0.0015
     14 C         140.5368  141.6497  169.4426 C.ar    1  UNL1        0.0754
     15 C         141.8874  141.4266  170.0560 C.ar    1  UNL1        0.0409
     16 C         141.7820  141.7113  171.5250 C.ar    1  UNL1        0.1214
     17 N         140.3663  142.1103  171.8194 N.ar    1  UNL1       -0.1711
     18 N         139.5968  142.0723  170.5324 N.ar    1  UNL1       -0.2757
     19 H         138.6423  142.2869  170.4223 H       1  UNL1        0.1889
     20 N         138.9536  140.8565  158.6585 N.am    1  UNL1       -0.2956
     21 C         138.3451  142.1507  158.2061 C.2     1  UNL1        0.2537
     22 O         138.6618  143.4234  158.9340 O.2     1  UNL1       -0.2695
     23 H         138.7457  140.0212  158.1807 H       1  UNL1        0.1501
     24 C         137.4197  142.1721  157.0257 C.ar    1  UNL1        0.1033
     25 C         137.2457  143.3086  156.0623 C.ar    1  UNL1        0.1105
     26 N         136.2244  142.8997  155.0427 N.ar    1  UNL1       -0.2346
     27 C         135.7671  141.5105  155.3759 C.ar    1  UNL1        0.1347
     28 S         136.5059  141.0608  156.6015 S.2     1  UNL1       -0.0599
     29 C         141.3639  140.8180  159.6276 C.3     1  UNL1        0.0273
     30 C         142.0044  141.8285  158.7228 C.3     1  UNL1        0.0022
     31 C         142.6045  143.0768  159.2985 C.3     1  UNL1        0.0006
     32 C         142.1881  143.5506  160.6594 C.3     1  UNL1        0.0096
     33 C         141.1553  144.6300  160.7943 C.3     1  UNL1        0.0850
     34 C         137.8951  144.3761  163.0428 C.3     1  UNL1        0.1107
     35 N         138.7958  144.3455  161.8438 N.am    1  UNL1       -0.3027
     36 C         140.2546  144.6606  161.9933 C.2     1  UNL1        0.2225
     37 O         140.8128  145.0064  163.3420 O.2     1  UNL1       -0.2751
     38 H         138.4294  144.1186  160.9586 H       1  UNL1        0.1495
@<TRIPOS>BOND
     1    34    35    1
     2    35    36   am
     3    36    37    2
     4    36    33    1
     5    33    32    1
     6    32    31    1
     7    31    30    1
     8    30    29    1
     9     1    29    1
    10     1    20    1
    11    20    21   am
    12    21    22    2
    13    21    24    1
    14    24    25   ar
    15    25    26   ar
    16    26    27   ar
    17    27    28   ar
    18     1     2    1
    19     2     3   ar
    20     3     4   ar
    21     4     5   ar
    22     5     8    1
    23     8     9   ar
    24     9    10   ar
    25    10    11   ar
    26    11    14    1
    27    14    15   ar
    28    15    16   ar
    29    16    17   ar
    30    17    18   ar
    31    11    12   ar
    32    12    13   ar
    33     5     6   ar
    34    28    24   ar
    35     6     2   ar
    36    13     8   ar
    37    18    14   ar
    38    35    38    1
    39    20    23    1
    40    18    19    1
    41     6     7    1
@<TRIPOS>MOLECULE
*****
 38 41 0 0 0
SMALL
GASTEIGER

@<TRIPOS>ATOM
      1 C         139.6349  139.1627  159.1887 C.3     1  UNL1        0.1287
      2 C         139.5602  138.8286  160.6491 C.ar    1  UNL1        0.1351
      3 N         138.5976  137.8707  161.2863 N.ar    1  UNL1       -0.2279
      4 C         138.8774  137.8438  162.7598 C.ar    1  UNL1        0.1171
      5 C         140.0128  138.7851  163.0332 C.ar    1  UNL1        0.0769
      6 N         140.4348  139.3937  161.7288 N.ar    1  UNL1       -0.3394
      7 H         141.1587  140.0490  161.6033 H       1  UNL1        0.1671
      8 C         140.6197  139.0681  164.3755 C.ar    1  UNL1        0.0172
      9 C         139.9140  139.9721  165.3422 C.ar    1  UNL1        0.0015
     10 C         140.5209  140.2551  166.6843 C.ar    1  UNL1        0.0015
     11 C         141.8337  139.6340  167.0598 C.ar    1  UNL1        0.0171
     12 C         142.5394  138.7299  166.0932 C.ar    1  UNL1        0.0015
     13 C         141.9325  138.4469  164.7510 C.ar    1  UNL1        0.0015
     14 C         142.4406  139.9170  168.4021 C.ar    1  UNL1        0.0754
     15 C         142.7238  141.2749  168.9731 C.ar    1  UNL1        0.0409
     16 C         143.3291  141.0890  170.3329 C.ar    1  UNL1        0.1214
     17 N         143.4200  139.6161  170.6023 N.ar    1  UNL1       -0.1711
     18 N         142.8709  138.8918  169.4090 N.ar    1  UNL1       -0.2757
     19 H         142.8046  137.9151  169.3050 H       1  UNL1        0.1889
     20 N         140.5072  138.3510  158.2774 N.am    1  UNL1       -0.2956
     21 C         141.9246  138.7717  158.0250 C.2     1  UNL1        0.2537
     22 O         142.4699  140.0041  158.6839 O.2     1  UNL1       -0.2695
     23 H         140.1493  137.5422  157.8450 H       1  UNL1        0.1501
     24 C         142.7969  137.9601  157.1137 C.ar    1  UNL1        0.1033
     25 C         143.7752  138.5035  156.1149 C.ar    1  UNL1        0.1105
     26 N         144.4268  137.3417  155.4251 N.ar    1  UNL1       -0.2346
     27 C         143.8512  136.0804  155.9976 C.ar    1  UNL1        0.1347
     28 S         142.8438  136.4626  157.0412 S.2     1  UNL1       -0.0599
     29 C         138.8375  140.3084  158.6396 C.3     1  UNL1        0.0273
     30 C         139.3778  141.7053  158.7209 C.3     1  UNL1        0.0022
     31 C         139.2350  142.4921  159.9899 C.3     1  UNL1        0.0006
     32 C         138.1036  142.1997  160.9303 C.3     1  UNL1        0.0096
     33 C         138.3356  142.2201  162.4122 C.3     1  UNL1        0.0850
     34 C         138.6062  144.8589  165.3639 C.3     1  UNL1        0.1107
     35 N         138.6539  143.5601  164.6150 N.am    1  UNL1       -0.3027
     36 C         138.2879  143.5189  163.1610 C.2     1  UNL1        0.2225
     37 O         137.8743  144.7764  162.4557 O.2     1  UNL1       -0.2751
     38 H         138.9254  142.7347  165.0779 H       1  UNL1        0.1495
@<TRIPOS>BOND
     1    34    35    1
     2    35    36   am
     3    36    37    2
     4    36    33    1
     5    33    32    1
     6    32    31    1
     7    31    30    1
     8    30    29    1
     9     1    29    1
    10     1    20    1
    11    20    21   am
    12    21    22    2
    13    21    24    1
    14    24    25   ar
    15    25    26   ar
    16    26    27   ar
    17    27    28   ar
    18     1     2    1
    19     2     3   ar
    20     3     4   ar
    21     4     5   ar
    22     5     8    1
    23     8     9   ar
    24     9    10   ar
    25    10    11   ar
    26    11    14    1
    27    14    15   ar
    28    15    16   ar
    29    16    17   ar
    30    17    18   ar
    31    11    12   ar
    32    12    13   ar
    33     5     6   ar
    34    28    24   ar
    35     6     2   ar
    36    13     8   ar
    37    18    14   ar
    38    35    38    1
    39    20    23    1
    40    18    19    1
    41     6     7    1
@<TRIPOS>MOLECULE
*****
 38 41 0 0 0
SMALL
GASTEIGER

@<TRIPOS>ATOM
      1 C         139.6271  139.5162  165.1938 C.3     1  UNL1        0.1287
      2 C         139.0970  140.4738  164.1682 C.ar    1  UNL1        0.1351
      3 N         137.7130  141.0515  164.1334 N.ar    1  UNL1       -0.2279
      4 C         137.6184  141.9566  162.9411 C.ar    1  UNL1        0.1171
      5 C         138.9437  141.9383  162.2389 C.ar    1  UNL1        0.0769
      6 N         139.8575  141.0219  162.9973 N.ar    1  UNL1       -0.3394
      7 H         140.7924  140.8163  162.7669 H       1  UNL1        0.1671
      8 C         139.2939  142.7024  160.9963 C.ar    1  UNL1        0.0172
      9 C         138.8307  142.2097  159.6574 C.ar    1  UNL1        0.0015
     10 C         139.1808  142.9737  158.4150 C.ar    1  UNL1        0.0015
     11 C         139.9941  144.2304  158.5115 C.ar    1  UNL1        0.0171
     12 C         140.4573  144.7230  159.8504 C.ar    1  UNL1        0.0015
     13 C         140.1072  143.9590  161.0928 C.ar    1  UNL1        0.0015
     14 C         140.3443  144.9944  157.2690 C.ar    1  UNL1        0.0754
     15 C         139.8499  146.3636  156.9072 C.ar    1  UNL1        0.0409
     16 C         140.4503  146.7388  155.5848 C.ar    1  UNL1        0.1214
     17 N         141.3158  145.6015  155.1293 N.ar    1  UNL1       -0.1711
     18 N         141.2503  144.5234  156.1702 N.ar    1  UNL1       -0.2757
     19 H         141.7195  143.6585  156.1379 H       1  UNL1        0.1889
     20 N         140.2167  140.0361  166.4713 N.am    1  UNL1       -0.2956
     21 C         139.5097  139.8019  167.7734 C.2     1  UNL1        0.2537
     22 O         138.2132  139.0479  167.7979 O.2     1  UNL1       -0.2695
     23 H         141.0676  140.5309  166.4552 H       1  UNL1        0.1501
     24 C         140.0993  140.3218  169.0509 C.ar    1  UNL1        0.1033
     25 C         139.4709  141.3312  169.9654 C.ar    1  UNL1        0.1105
     26 N         140.4040  141.5568  171.1179 N.ar    1  UNL1       -0.2346
     27 C         141.6091  140.6868  170.9159 C.ar    1  UNL1        0.1347
     28 S         141.4208  139.9234  169.6383 S.2     1  UNL1       -0.0599
     29 C         139.5678  138.0387  164.9418 C.3     1  UNL1        0.0273
     30 C         140.8123  137.2918  164.5631 C.3     1  UNL1        0.0022
     31 C         141.3952  137.4529  163.1904 C.3     1  UNL1        0.0006
     32 C         142.6410  138.2652  162.9952 C.3     1  UNL1        0.0096
     33 C         143.2228  139.0340  164.1443 C.3     1  UNL1        0.0850
     34 C         144.7782  142.5445  163.1409 C.3     1  UNL1        0.1107
     35 N         144.5809  141.0618  163.2537 N.am    1  UNL1       -0.3027
     36 C         143.4200  140.5167  164.0315 C.2     1  UNL1        0.2225
     37 O         142.4563  141.4542  164.6965 O.2     1  UNL1       -0.2751
     38 H         145.2135  140.4465  162.8173 H       1  UNL1        0.1495
@<TRIPOS>BOND
     1    34    35    1
     2    35    36   am
     3    36    37    2
     4    36    33    1
     5    33    32    1
     6    32    31    1
     7    31    30    1
     8    30    29    1
     9     1    29    1
    10     1    20    1
    11    20    21   am
    12    21    22    2
    13    21    24    1
    14    24    25   ar
    15    25    26   ar
    16    26    27   ar
    17    27    28   ar
    18     1     2    1
    19     2     3   ar
    20     3     4   ar
    21     4     5   ar
    22     5     8    1
    23     8     9   ar
    24     9    10   ar
    25    10    11   ar
    26    11    14    1
    27    14    15   ar
    28    15    16   ar
    29    16    17   ar
    30    17    18   ar
    31    11    12   ar
    32    12    13   ar
    33     5     6   ar
    34    28    24   ar
    35     6     2   ar
    36    13     8   ar
    37    18    14   ar
    38    35    38    1
    39    20    23    1
    40    18    19    1
    41     6     7    1
@<TRIPOS>MOLECULE
*****
 38 41 0 0 0
SMALL
GASTEIGER

@<TRIPOS>ATOM
      1 C         141.3392  142.6255  165.1654 C.3     1  UNL1        0.1287
      2 C         141.8082  141.4236  164.4004 C.ar    1  UNL1        0.1351
      3 N         142.5197  140.2348  164.9754 N.ar    1  UNL1       -0.2279
      4 C         142.7993  139.2759  163.8564 C.ar    1  UNL1        0.1171
      5 C         142.2608  139.8721  162.5897 C.ar    1  UNL1        0.0769
      6 N         141.6483  141.1994  162.9259 N.ar    1  UNL1       -0.3394
      7 H         141.2170  141.8153  162.2903 H       1  UNL1        0.1671
      8 C         142.3237  139.2501  161.2261 C.ar    1  UNL1        0.0172
      9 C         141.7968  139.9963  160.0364 C.ar    1  UNL1        0.0015
     10 C         141.8598  139.3743  158.6729 C.ar    1  UNL1        0.0015
     11 C         142.4496  138.0062  158.4991 C.ar    1  UNL1        0.0171
     12 C         142.9765  137.2600  159.6888 C.ar    1  UNL1        0.0015
     13 C         142.9136  137.8819  161.0523 C.ar    1  UNL1        0.0015
     14 C         142.5125  137.3842  157.1355 C.ar    1  UNL1        0.0754
     15 C         141.3758  137.2751  156.1629 C.ar    1  UNL1        0.0409
     16 C         141.8839  136.5856  154.9315 C.ar    1  UNL1        0.1214
     17 N         143.3347  136.2686  155.1430 N.ar    1  UNL1       -0.1711
     18 N         143.7232  136.7622  156.5052 N.ar    1  UNL1       -0.2757
     19 H         144.6160  136.6905  156.9138 H       1  UNL1        0.1889
     20 N         140.8037  142.4664  166.5575 N.am    1  UNL1       -0.2956
     21 C         141.7476  142.4063  167.7218 C.2     1  UNL1        0.2537
     22 O         143.2269  142.5054  167.4939 O.2     1  UNL1       -0.2695
     23 H         139.8328  142.4014  166.7071 H       1  UNL1        0.1501
     24 C         141.2122  142.2472  169.1139 C.ar    1  UNL1        0.1033
     25 C         140.3506  143.2334  169.8453 C.ar    1  UNL1        0.1105
     26 N         140.0503  142.6696  171.2024 N.ar    1  UNL1       -0.2346
     27 C         140.7263  141.3349  171.3099 C.ar    1  UNL1        0.1347
     28 S         141.4444  141.0737  170.0190 S.2     1  UNL1       -0.0599
     29 C         141.4056  143.9866  164.5384 C.3     1  UNL1        0.0273
     30 C         140.1516  144.6496  164.0505 C.3     1  UNL1        0.0022
     31 C         138.8913  144.5575  164.8587 C.3     1  UNL1        0.0006
     32 C         137.6395  144.0135  164.2367 C.3     1  UNL1        0.0096
     33 C         137.7284  142.9823  163.1510 C.3     1  UNL1        0.0850
     34 C         138.3520  139.6367  165.1925 C.3     1  UNL1        0.1107
     35 N         137.9326  141.0386  164.8627 N.am    1  UNL1       -0.3027
     36 C         138.1478  141.5804  163.4807 C.2     1  UNL1        0.2225
     37 O         138.7824  140.7203  162.4284 O.2     1  UNL1       -0.2751
     38 H         137.5161  141.6031  165.5534 H       1  UNL1        0.1495
@<TRIPOS>BOND
     1    34    35    1
     2    35    36   am
     3    36    37    2
     4    36    33    1
     5    33    32    1
     6    32    31    1
     7    31    30    1
     8    30    29    1
     9     1    29    1
    10     1    20    1
    11    20    21   am
    12    21    22    2
    13    21    24    1
    14    24    25   ar
    15    25    26   ar
    16    26    27   ar
    17    27    28   ar
    18     1     2    1
    19     2     3   ar
    20     3     4   ar
    21     4     5   ar
    22     5     8    1
    23     8     9   ar
    24     9    10   ar
    25    10    11   ar
    26    11    14    1
    27    14    15   ar
    28    15    16   ar
    29    16    17   ar
    30    17    18   ar
    31    11    12   ar
    32    12    13   ar
    33     5     6   ar
    34    28    24   ar
    35     6     2   ar
    36    13     8   ar
    37    18    14   ar
    38    35    38    1
    39    20    23    1
    40    18    19    1
    41     6     7    1
