@<TRIPOS>MOLECULE
*****
 41 45 0 0 0
SMALL
GASTEIGER

@<TRIPOS>ATOM
      1 C         141.2507  140.9377  162.5359 C.3     1  UNL1        0.0792
      2 C         140.2871  139.3818  164.3800 C.ar    1  UNL1        0.1351
      3 C         139.8739  139.1566  165.8044 C.ar    1  UNL1        0.0366
      4 C         140.0110  140.2621  166.8088 C.ar    1  UNL1        0.0030
      5 C         139.5978  140.0370  168.2330 C.ar    1  UNL1        0.0006
      6 C         139.7349  141.1426  169.2375 C.ar    1  UNL1        0.0067
      7 C         140.2852  142.4733  168.8177 C.ar    1  UNL1        0.0346
      8 BR        140.4222  143.5789  169.8221 Br      1  UNL1       -0.0490
      9 C         140.6984  142.6985  167.3934 C.ar    1  UNL1        0.0067
     10 C         140.5613  141.5929  166.3889 C.ar    1  UNL1        0.0004
     11 C         140.9745  141.8181  164.9647 C.ar    1  UNL1       -0.0009
     12 C         140.8374  140.7125  163.9602 C.ar    1  UNL1        0.0182
     13 C         138.8082  137.6557  163.1217 C.3     1  UNL1        0.2525
     14 O         140.1501  138.2762  163.3756 O.3     1  UNL1       -0.4717
     15 C         140.3627  140.4816  161.4163 C.ar    1  UNL1        0.0245
     16 C         138.9594  141.0013  161.3127 C.ar    1  UNL1        0.0200
     17 C         138.0715  140.5451  160.1931 C.ar    1  UNL1        0.1019
     18 N         138.5869  139.5693  159.1771 N.ar    1  UNL1       -0.2076
     19 C         139.9901  139.0496  159.2808 C.ar    1  UNL1        0.2598
     20 C         140.8781  139.5058  160.4004 C.ar    1  UNL1        0.1879
     21 O         140.5055  138.0738  158.2648 O.3     1  UNL1       -0.4541
     22 C         139.7720  137.8810  156.9706 C.3     1  UNL1        0.2543
     23 O         142.2813  138.9861  160.5040 O.3     1  UNL1       -0.4670
     24 C         143.3159  139.4161  159.5066 C.3     1  UNL1        0.2527
     25 C         142.5518  141.6190  162.2313 C.3     1  UNL1        0.1159
     26 O         143.2935  140.5067  162.9114 O.3     1  UNL1       -0.3820
     27 H         143.7781  139.9891  162.2495 H       1  UNL1        0.2107
     28 C         141.8101  142.7313  161.5512 C.ar    1  UNL1        0.0026
     29 C         140.9237  143.6402  162.3501 C.ar    1  UNL1        0.0011
     30 C         140.1820  144.7525  161.6699 C.ar    1  UNL1        0.0372
     31 C         140.3267  144.9560  160.1908 C.ar    1  UNL1        0.1454
     32 O         139.7250  145.9593  159.2521 O.2     1  UNL1       -0.4504
     33 C         140.2395  145.6706  157.8730 C.ar    1  UNL1        0.1796
     34 C         141.1592  144.4888  157.9594 C.ar    1  UNL1        0.0437
     35 C         141.2131  144.0471  159.3919 C.ar    1  UNL1        0.0375
     36 C         141.9548  142.9348  160.0720 C.ar    1  UNL1        0.0011
     37 C         143.8529  142.3003  161.9266 C.3     1  UNL1        0.0491
     38 C         144.7731  142.6938  163.0439 C.3     1  UNL1        0.0750
     39 N         144.2710  143.5641  164.1578 N.3     1  UNL1       -0.2702
     40 C         144.2367  143.0390  165.5625 C.3     1  UNL1        0.0897
     41 C         143.8033  144.9593  163.8670 C.3     1  UNL1        0.0897
@<TRIPOS>BOND
     1    13    14    1
     2    14     2    1
     3     2     3   ar
     4     3     4   ar
     5     4     5   ar
     6     5     6   ar
     7     6     7   ar
     8     7     8    1
     9     7     9   ar
    10     9    10   ar
    11    10    11   ar
    12    11    12   ar
    13     1    12    1
    14     1    15    1
    15    15    16   ar
    16    16    17   ar
    17    17    18   ar
    18    18    19   ar
    19    19    21    1
    20    21    22    1
    21    19    20   ar
    22    20    23    1
    23    23    24    1
    24     1    25    1
    25    25    26    1
    26    25    37    1
    27    37    38    1
    28    38    39    1
    29    39    40    1
    30    39    41    1
    31    25    28    1
    32    28    29   ar
    33    29    30   ar
    34    30    31   ar
    35    31    32   ar
    36    32    33   ar
    37    33    34   ar
    38    34    35   ar
    39    35    36   ar
    40    12     2   ar
    41    20    15   ar
    42    36    28   ar
    43    10     4   ar
    44    35    31   ar
    45    26    27    1
@<TRIPOS>MOLECULE
*****
 41 45 0 0 0
SMALL
GASTEIGER

@<TRIPOS>ATOM
      1 C         141.3331  140.7335  163.0042 C.3     1  UNL1        0.0792
      2 C         142.2054  142.5727  164.6186 C.ar    1  UNL1        0.1351
      3 C         142.6679  142.9909  165.9829 C.ar    1  UNL1        0.0366
      4 C         142.7205  141.9879  167.0971 C.ar    1  UNL1        0.0030
      5 C         143.1830  142.4060  168.4614 C.ar    1  UNL1        0.0006
      6 C         143.2356  141.4031  169.5755 C.ar    1  UNL1        0.0067
      7 C         142.8257  139.9820  169.3254 C.ar    1  UNL1        0.0346
      8 BR        142.8784  138.9791  170.4396 Br      1  UNL1       -0.0490
      9 C         142.3632  139.5639  167.9611 C.ar    1  UNL1        0.0067
     10 C         142.3106  140.5668  166.8469 C.ar    1  UNL1        0.0004
     11 C         141.8482  140.1487  165.4827 C.ar    1  UNL1       -0.0009
     12 C         141.7956  141.1517  164.3685 C.ar    1  UNL1        0.0182
     13 C         142.6354  144.9773  163.7337 C.3     1  UNL1        0.2525
     14 O         142.1528  143.5756  163.5045 O.3     1  UNL1       -0.4717
     15 C         142.2721  140.0142  162.0817 C.ar    1  UNL1        0.0245
     16 C         142.6614  138.5938  162.3660 C.ar    1  UNL1        0.0200
     17 C         143.6004  137.8745  161.4436 C.ar    1  UNL1        0.1019
     18 N         144.1501  138.5757  160.2368 N.ar    1  UNL1       -0.2076
     19 C         143.7608  139.9961  159.9526 C.ar    1  UNL1        0.2598
     20 C         142.8218  140.7154  160.8750 C.ar    1  UNL1        0.1879
     21 O         144.3105  140.6973  158.7459 O.3     1  UNL1       -0.4541
     22 C         143.7713  140.3788  157.3829 C.3     1  UNL1        0.2543
     23 O         142.4325  142.1358  160.5908 O.3     1  UNL1       -0.4670
     24 C         143.4864  143.2000  160.5071 C.3     1  UNL1        0.2527
     25 C         139.9316  141.0346  162.5624 C.3     1  UNL1        0.1159
     26 O         140.4400  142.1688  161.7227 O.3     1  UNL1       -0.3820
     27 H         140.3455  141.9438  160.7839 H       1  UNL1        0.2107
     28 C         139.4232  139.9004  163.4020 C.ar    1  UNL1        0.0026
     29 C         139.5242  138.4909  162.8990 C.ar    1  UNL1        0.0011
     30 C         139.0158  137.3566  163.7388 C.ar    1  UNL1        0.0372
     31 C         138.4064  137.6319  165.0815 C.ar    1  UNL1        0.1454
     32 O         137.8239  136.7248  166.1244 O.2     1  UNL1       -0.4504
     33 C         137.3629  137.5736  167.2720 C.ar    1  UNL1        0.1796
     34 C         137.6605  139.0054  166.9383 C.ar    1  UNL1        0.0437
     35 C         138.3055  139.0415  165.5845 C.ar    1  UNL1        0.0375
     36 C         138.8139  140.1757  164.7448 C.ar    1  UNL1        0.0011
     37 C         138.5302  141.3357  162.1206 C.3     1  UNL1        0.0491
     38 C         138.1142  142.7530  161.8598 C.3     1  UNL1        0.0750
     39 N         138.3069  143.7981  162.9184 N.3     1  UNL1       -0.2702
     40 C         137.8052  143.5563  164.3112 C.3     1  UNL1        0.0897
     41 C         139.0014  145.0850  162.5843 C.3     1  UNL1        0.0897
@<TRIPOS>BOND
     1    13    14    1
     2    14     2    1
     3     2     3   ar
     4     3     4   ar
     5     4     5   ar
     6     5     6   ar
     7     6     7   ar
     8     7     8    1
     9     7     9   ar
    10     9    10   ar
    11    10    11   ar
    12    11    12   ar
    13     1    12    1
    14     1    15    1
    15    15    16   ar
    16    16    17   ar
    17    17    18   ar
    18    18    19   ar
    19    19    21    1
    20    21    22    1
    21    19    20   ar
    22    20    23    1
    23    23    24    1
    24     1    25    1
    25    25    26    1
    26    25    37    1
    27    37    38    1
    28    38    39    1
    29    39    40    1
    30    39    41    1
    31    25    28    1
    32    28    29   ar
    33    29    30   ar
    34    30    31   ar
    35    31    32   ar
    36    32    33   ar
    37    33    34   ar
    38    34    35   ar
    39    35    36   ar
    40    12     2   ar
    41    20    15   ar
    42    36    28   ar
    43    10     4   ar
    44    35    31   ar
    45    26    27    1
@<TRIPOS>MOLECULE
*****
 41 45 0 0 0
SMALL
GASTEIGER

@<TRIPOS>ATOM
      1 C         141.6290  140.8492  161.9073 C.3     1  UNL1        0.0792
      2 C         142.5034  141.5884  159.5751 C.ar    1  UNL1        0.1351
      3 C         142.9534  141.2419  158.1867 C.ar    1  UNL1        0.0366
      4 C         142.9789  139.8095  157.7422 C.ar    1  UNL1        0.0030
      5 C         143.4289  139.4629  156.3540 C.ar    1  UNL1        0.0006
      6 C         143.4544  138.0305  155.9095 C.ar    1  UNL1        0.0067
      7 C         143.0300  136.9447  156.8533 C.ar    1  UNL1        0.0346
      8 BR        143.0555  135.5122  156.4088 Br      1  UNL1       -0.0490
      9 C         142.5800  137.2912  158.2416 C.ar    1  UNL1        0.0067
     10 C         142.5545  138.7236  158.6861 C.ar    1  UNL1        0.0004
     11 C         142.1045  139.0702  160.0744 C.ar    1  UNL1       -0.0009
     12 C         142.0790  140.5026  160.5189 C.ar    1  UNL1        0.0182
     13 C         141.8267  144.0619  159.1581 C.3     1  UNL1        0.2525
     14 O         142.4779  143.0208  160.0196 O.3     1  UNL1       -0.4717
     15 C         140.2780  141.4630  162.1264 C.ar    1  UNL1        0.0245
     16 C         139.0457  140.7548  161.6469 C.ar    1  UNL1        0.0200
     17 C         137.6947  141.3687  161.8661 C.ar    1  UNL1        0.1019
     18 N         137.5761  142.6908  162.5648 N.ar    1  UNL1       -0.2076
     19 C         138.8084  143.3989  163.0443 C.ar    1  UNL1        0.2598
     20 C         140.1593  142.7850  162.8251 C.ar    1  UNL1        0.1879
     21 O         138.6897  144.7209  163.7429 O.3     1  UNL1       -0.4541
     22 C         138.6331  144.7752  165.2409 C.3     1  UNL1        0.2543
     23 O         141.3916  143.4932  163.3045 O.3     1  UNL1       -0.4670
     24 C         141.7268  144.8564  162.7760 C.3     1  UNL1        0.2527
     25 C         142.5299  140.5818  163.0763 C.3     1  UNL1        0.1159
     26 O         143.5593  141.5044  162.4940 O.3     1  UNL1       -0.3820
     27 H         143.6217  142.3045  163.0390 H       1  UNL1        0.2107
     28 C         141.5005  139.6592  163.6586 C.ar    1  UNL1        0.0026
     29 C         141.3217  138.2819  163.0921 C.ar    1  UNL1        0.0011
     30 C         140.2922  137.3592  163.6745 C.ar    1  UNL1        0.0372
     31 C         139.4417  137.8140  164.8233 C.ar    1  UNL1        0.1454
     32 O         138.3542  137.1314  165.5989 O.2     1  UNL1       -0.4504
     33 C         137.8609  138.0869  166.6447 C.ar    1  UNL1        0.1796
     34 C         138.6436  139.3600  166.5155 C.ar    1  UNL1        0.0437
     35 C         139.6206  139.1913  165.3898 C.ar    1  UNL1        0.0375
     36 C         140.6500  140.1139  164.8075 C.ar    1  UNL1        0.0011
     37 C         143.4309  140.3145  164.2454 C.3     1  UNL1        0.0491
     38 C         144.4180  141.3549  164.6849 C.3     1  UNL1        0.0750
     39 N         143.9601  142.5237  165.5061 N.3     1  UNL1       -0.2702
     40 C         144.4509  143.9043  165.1847 C.3     1  UNL1        0.0897
     41 C         143.0116  142.3120  166.6486 C.3     1  UNL1        0.0897
@<TRIPOS>BOND
     1    13    14    1
     2    14     2    1
     3     2     3   ar
     4     3     4   ar
     5     4     5   ar
     6     5     6   ar
     7     6     7   ar
     8     7     8    1
     9     7     9   ar
    10     9    10   ar
    11    10    11   ar
    12    11    12   ar
    13     1    12    1
    14     1    15    1
    15    15    16   ar
    16    16    17   ar
    17    17    18   ar
    18    18    19   ar
    19    19    21    1
    20    21    22    1
    21    19    20   ar
    22    20    23    1
    23    23    24    1
    24     1    25    1
    25    25    26    1
    26    25    37    1
    27    37    38    1
    28    38    39    1
    29    39    40    1
    30    39    41    1
    31    25    28    1
    32    28    29   ar
    33    29    30   ar
    34    30    31   ar
    35    31    32   ar
    36    32    33   ar
    37    33    34   ar
    38    34    35   ar
    39    35    36   ar
    40    12     2   ar
    41    20    15   ar
    42    36    28   ar
    43    10     4   ar
    44    35    31   ar
    45    26    27    1
@<TRIPOS>MOLECULE
*****
 41 45 0 0 0
SMALL
GASTEIGER

@<TRIPOS>ATOM
      1 C         141.0601  141.9979  162.6804 C.3     1  UNL1        0.0792
      2 C         140.0394  143.1895  164.7512 C.ar    1  UNL1        0.1351
      3 C         139.8449  143.2748  166.2362 C.ar    1  UNL1        0.0366
      4 C         140.4769  142.2538  167.1352 C.ar    1  UNL1        0.0030
      5 C         140.2825  142.3390  168.6201 C.ar    1  UNL1        0.0006
      6 C         140.9145  141.3180  169.5190 C.ar    1  UNL1        0.0067
      7 C         141.7408  140.2117  168.9332 C.ar    1  UNL1        0.0346
      8 BR        142.3727  139.1907  169.8322 Br      1  UNL1       -0.0490
      9 C         141.9352  140.1264  167.4482 C.ar    1  UNL1        0.0067
     10 C         141.3032  141.1474  166.5492 C.ar    1  UNL1        0.0004
     11 C         141.4976  141.0622  165.0643 C.ar    1  UNL1       -0.0009
     12 C         140.8657  142.0832  164.1654 C.ar    1  UNL1        0.0182
     13 C         137.9305  144.1697  163.5928 C.3     1  UNL1        0.2525
     14 O         139.4074  144.2105  163.8522 O.3     1  UNL1       -0.4717
     15 C         139.9478  141.5000  161.8058 C.ar    1  UNL1        0.0245
     16 C         139.3814  140.1277  162.0209 C.ar    1  UNL1        0.0200
     17 C         138.2692  139.6298  161.1463 C.ar    1  UNL1        0.1019
     18 N         137.7232  140.5042  160.0566 N.ar    1  UNL1       -0.2076
     19 C         138.2895  141.8764  159.8415 C.ar    1  UNL1        0.2598
     20 C         139.4018  142.3743  160.7161 C.ar    1  UNL1        0.1879
     21 O         137.7436  142.7507  158.7518 O.3     1  UNL1       -0.4541
     22 C         137.8452  142.3161  157.3198 C.3     1  UNL1        0.2543
     23 O         139.9682  143.7465  160.5010 O.3     1  UNL1       -0.4670
     24 C         140.7657  144.0436  159.2658 C.3     1  UNL1        0.2527
     25 C         142.3667  142.4104  162.0701 C.3     1  UNL1        0.1159
     26 O         142.1837  143.7959  162.6150 O.3     1  UNL1       -0.3820
     27 H         142.8303  143.9539  163.3205 H       1  UNL1        0.2107
     28 C         142.5497  141.0249  161.5253 C.ar    1  UNL1        0.0026
     29 C         142.9071  139.8974  162.4478 C.ar    1  UNL1        0.0011
     30 C         143.0901  138.5118  161.9029 C.ar    1  UNL1        0.0372
     31 C         142.9157  138.2539  160.4356 C.ar    1  UNL1        0.1454
     32 O         143.0308  137.0030  159.6158 O.2     1  UNL1       -0.4504
     33 C         142.7445  137.3574  158.1866 C.ar    1  UNL1        0.1796
     34 C         142.4525  138.8273  158.1232 C.ar    1  UNL1        0.0437
     35 C         142.5582  139.3814  159.5131 C.ar    1  UNL1        0.0375
     36 C         142.3752  140.7669  160.0580 C.ar    1  UNL1        0.0011
     37 C         143.6733  142.8230  161.4599 C.3     1  UNL1        0.0491
     38 C         144.7705  143.3615  162.3295 C.3     1  UNL1        0.0750
     39 N         145.0323  142.7476  163.6730 N.3     1  UNL1       -0.2702
     40 C         144.5052  143.4055  164.9137 C.3     1  UNL1        0.0897
     41 C         145.8211  141.4760  163.7756 C.3     1  UNL1        0.0897
@<TRIPOS>BOND
     1    13    14    1
     2    14     2    1
     3     2     3   ar
     4     3     4   ar
     5     4     5   ar
     6     5     6   ar
     7     6     7   ar
     8     7     8    1
     9     7     9   ar
    10     9    10   ar
    11    10    11   ar
    12    11    12   ar
    13     1    12    1
    14     1    15    1
    15    15    16   ar
    16    16    17   ar
    17    17    18   ar
    18    18    19   ar
    19    19    21    1
    20    21    22    1
    21    19    20   ar
    22    20    23    1
    23    23    24    1
    24     1    25    1
    25    25    26    1
    26    25    37    1
    27    37    38    1
    28    38    39    1
    29    39    40    1
    30    39    41    1
    31    25    28    1
    32    28    29   ar
    33    29    30   ar
    34    30    31   ar
    35    31    32   ar
    36    32    33   ar
    37    33    34   ar
    38    34    35   ar
    39    35    36   ar
    40    12     2   ar
    41    20    15   ar
    42    36    28   ar
    43    10     4   ar
    44    35    31   ar
    45    26    27    1
@<TRIPOS>MOLECULE
*****
 41 45 0 0 0
SMALL
GASTEIGER

@<TRIPOS>ATOM
      1 C         141.2053  142.4354  159.5719 C.3     1  UNL1        0.0792
      2 C         143.6730  142.2567  160.3650 C.ar    1  UNL1        0.1351
      3 C         144.6878  141.7586  161.3509 C.ar    1  UNL1        0.0366
      4 C         144.2498  140.9411  162.5298 C.ar    1  UNL1        0.0030
      5 C         145.2645  140.4430  163.5158 C.ar    1  UNL1        0.0006
      6 C         144.8265  139.6255  164.6946 C.ar    1  UNL1        0.0067
      7 C         143.3737  139.3060  164.8876 C.ar    1  UNL1        0.0346
      8 BR        142.9356  138.4885  166.0665 Br      1  UNL1       -0.0490
      9 C         142.3588  139.8041  163.9016 C.ar    1  UNL1        0.0067
     10 C         142.7969  140.6216  162.7227 C.ar    1  UNL1        0.0004
     11 C         141.7821  141.1197  161.7368 C.ar    1  UNL1       -0.0009
     12 C         142.2202  141.9373  160.5579 C.ar    1  UNL1        0.0182
     13 C         145.1271  142.5254  158.2288 C.3     1  UNL1        0.2525
     14 O         144.1110  143.0742  159.1861 O.3     1  UNL1       -0.4717
     15 C         140.2715  141.4698  158.9043 C.ar    1  UNL1        0.0245
     16 C         138.8234  141.4356  159.2941 C.ar    1  UNL1        0.0200
     17 C         137.8896  140.4701  158.6264 C.ar    1  UNL1        0.1019
     18 N         138.4039  139.5387  157.5690 N.ar    1  UNL1       -0.2076
     19 C         139.8520  139.5729  157.1793 C.ar    1  UNL1        0.2598
     20 C         140.7858  140.5384  157.8469 C.ar    1  UNL1        0.1879
     21 O         140.3662  138.6415  156.1219 O.3     1  UNL1       -0.4541
     22 C         140.4253  137.1662  156.3862 C.3     1  UNL1        0.2543
     23 O         142.2338  140.5726  157.4572 O.3     1  UNL1       -0.4670
     24 C         143.1563  139.4766  157.9019 C.3     1  UNL1        0.2527
     25 C         141.1243  143.8989  159.2537 C.3     1  UNL1        0.1159
     26 O         141.5079  143.6111  157.8324 O.3     1  UNL1       -0.3820
     27 H         140.7463  143.7706  157.2533 H       1  UNL1        0.2107
     28 C         140.7406  144.1867  160.6749 C.ar    1  UNL1        0.0026
     29 C         141.7270  144.8332  161.6018 C.ar    1  UNL1        0.0011
     30 C         141.3433  145.1211  163.0231 C.ar    1  UNL1        0.0372
     31 C         139.9733  144.7624  163.5174 C.ar    1  UNL1        0.1454
     32 O         139.3151  144.9233  164.8557 O.2     1  UNL1       -0.4504
     33 C         137.9220  144.3762  164.7559 C.ar    1  UNL1        0.1796
     34 C         137.7192  143.8772  163.3559 C.ar    1  UNL1        0.0437
     35 C         138.9869  144.1159  162.5905 C.ar    1  UNL1        0.0375
     36 C         139.3706  143.8281  161.1693 C.ar    1  UNL1        0.0011
     37 C         141.0433  145.3625  158.9354 C.3     1  UNL1        0.0491
     38 C         141.6877  145.8961  157.6904 C.3     1  UNL1        0.0750
     39 N         140.8565  146.1613  156.4702 N.3     1  UNL1       -0.2702
     40 C         139.5199  146.8288  156.6038 C.3     1  UNL1        0.0897
     41 C         141.3620  145.7590  155.1165 C.3     1  UNL1        0.0897
@<TRIPOS>BOND
     1    13    14    1
     2    14     2    1
     3     2     3   ar
     4     3     4   ar
     5     4     5   ar
     6     5     6   ar
     7     6     7   ar
     8     7     8    1
     9     7     9   ar
    10     9    10   ar
    11    10    11   ar
    12    11    12   ar
    13     1    12    1
    14     1    15    1
    15    15    16   ar
    16    16    17   ar
    17    17    18   ar
    18    18    19   ar
    19    19    21    1
    20    21    22    1
    21    19    20   ar
    22    20    23    1
    23    23    24    1
    24     1    25    1
    25    25    26    1
    26    25    37    1
    27    37    38    1
    28    38    39    1
    29    39    40    1
    30    39    41    1
    31    25    28    1
    32    28    29   ar
    33    29    30   ar
    34    30    31   ar
    35    31    32   ar
    36    32    33   ar
    37    33    34   ar
    38    34    35   ar
    39    35    36   ar
    40    12     2   ar
    41    20    15   ar
    42    36    28   ar
    43    10     4   ar
    44    35    31   ar
    45    26    27    1
@<TRIPOS>MOLECULE
*****
 41 45 0 0 0
SMALL
GASTEIGER

@<TRIPOS>ATOM
      1 C         141.6341  140.3497  161.3208 C.3     1  UNL1        0.0792
      2 C         142.5858  138.7286  163.1143 C.ar    1  UNL1        0.1351
      3 C         142.9095  138.4210  164.5463 C.ar    1  UNL1        0.0366
      4 C         142.6052  139.4267  165.6168 C.ar    1  UNL1        0.0030
      5 C         142.9289  139.1191  167.0487 C.ar    1  UNL1        0.0006
      6 C         142.6247  140.1248  168.1192 C.ar    1  UNL1        0.0067
      7 C         141.9967  141.4381  167.7577 C.ar    1  UNL1        0.0346
      8 BR        141.6924  142.4439  168.8282 Br      1  UNL1       -0.0490
      9 C         141.6730  141.7458  166.3257 C.ar    1  UNL1        0.0067
     10 C         141.9772  140.7401  165.2552 C.ar    1  UNL1        0.0004
     11 C         141.6535  141.0477  163.8233 C.ar    1  UNL1       -0.0009
     12 C         141.9578  140.0420  162.7528 C.ar    1  UNL1        0.0182
     13 C         144.2636  137.6578  161.4444 C.3     1  UNL1        0.2525
     14 O         142.8900  137.7229  162.0438 O.3     1  UNL1       -0.4717
     15 C         142.7075  140.8491  160.3998 C.ar    1  UNL1        0.0245
     16 C         143.4509  142.1099  160.7285 C.ar    1  UNL1        0.0200
     17 C         144.5244  142.6093  159.8075 C.ar    1  UNL1        0.1019
     18 N         144.8545  141.8480  158.5579 N.ar    1  UNL1       -0.2076
     19 C         144.1111  140.5873  158.2293 C.ar    1  UNL1        0.2598
     20 C         143.0376  140.0879  159.1502 C.ar    1  UNL1        0.1879
     21 O         144.4412  139.8261  156.9797 O.3     1  UNL1       -0.4541
     22 C         145.2630  140.4713  155.9034 C.3     1  UNL1        0.2543
     23 O         142.2943  138.8272  158.8216 O.3     1  UNL1       -0.4670
     24 C         141.3447  138.7973  157.6608 C.3     1  UNL1        0.2527
     25 C         140.2369  140.1579  160.8098 C.3     1  UNL1        0.1159
     26 O         140.3630  138.6782  161.0204 O.3     1  UNL1       -0.3820
     27 H         139.7891  138.4059  161.7535 H       1  UNL1        0.2107
     28 C         140.1108  141.6377  160.5992 C.ar    1  UNL1        0.0026
     29 C         140.0858  142.1978  159.2080 C.ar    1  UNL1        0.0011
     30 C         139.9598  143.6776  158.9974 C.ar    1  UNL1        0.0372
     31 C         139.8587  144.5973  160.1781 C.ar    1  UNL1        0.1454
     32 O         139.7262  146.0879  160.2808 O.2     1  UNL1       -0.4504
     33 C         139.6693  146.4490  161.7356 C.ar    1  UNL1        0.1796
     34 C         139.7667  145.1816  162.5319 C.ar    1  UNL1        0.0437
     35 C         139.8837  144.0371  161.5693 C.ar    1  UNL1        0.0375
     36 C         140.0097  142.5574  161.7799 C.ar    1  UNL1        0.0011
     37 C         138.8397  139.9662  160.2989 C.3     1  UNL1        0.0491
     38 C         137.7524  139.5283  161.2347 C.3     1  UNL1        0.0750
     39 N         137.8395  139.8625  162.6945 N.3     1  UNL1       -0.2702
     40 C         137.2902  141.1635  163.2000 C.3     1  UNL1        0.0897
     41 C         138.4760  138.8958  163.6485 C.3     1  UNL1        0.0897
@<TRIPOS>BOND
     1    13    14    1
     2    14     2    1
     3     2     3   ar
     4     3     4   ar
     5     4     5   ar
     6     5     6   ar
     7     6     7   ar
     8     7     8    1
     9     7     9   ar
    10     9    10   ar
    11    10    11   ar
    12    11    12   ar
    13     1    12    1
    14     1    15    1
    15    15    16   ar
    16    16    17   ar
    17    17    18   ar
    18    18    19   ar
    19    19    21    1
    20    21    22    1
    21    19    20   ar
    22    20    23    1
    23    23    24    1
    24     1    25    1
    25    25    26    1
    26    25    37    1
    27    37    38    1
    28    38    39    1
    29    39    40    1
    30    39    41    1
    31    25    28    1
    32    28    29   ar
    33    29    30   ar
    34    30    31   ar
    35    31    32   ar
    36    32    33   ar
    37    33    34   ar
    38    34    35   ar
    39    35    36   ar
    40    12     2   ar
    41    20    15   ar
    42    36    28   ar
    43    10     4   ar
    44    35    31   ar
    45    26    27    1
@<TRIPOS>MOLECULE
*****
 41 45 0 0 0
SMALL
GASTEIGER

@<TRIPOS>ATOM
      1 C         140.4024  142.1226  160.1857 C.3     1  UNL1        0.0792
      2 C         141.3312  139.7984  160.8826 C.ar    1  UNL1        0.1351
      3 C         141.3630  138.6471  161.8437 C.ar    1  UNL1        0.0366
      4 C         140.4980  138.6689  163.0690 C.ar    1  UNL1        0.0030
      5 C         140.5298  137.5177  164.0300 C.ar    1  UNL1        0.0006
      6 C         139.6648  137.5394  165.2553 C.ar    1  UNL1        0.0067
      7 C         138.7680  138.7124  165.5195 C.ar    1  UNL1        0.0346
      8 BR        137.9029  138.7341  166.7447 Br      1  UNL1       -0.0490
      9 C         138.7361  139.8636  164.5584 C.ar    1  UNL1        0.0067
     10 C         139.6011  139.8419  163.3331 C.ar    1  UNL1        0.0004
     11 C         139.5693  140.9931  162.3720 C.ar    1  UNL1       -0.0009
     12 C         140.4343  140.9713  161.1468 C.ar    1  UNL1        0.0182
     13 C         142.3110  138.5224  158.8425 C.3     1  UNL1        0.2525
     14 O         142.1962  139.7766  159.6573 O.3     1  UNL1       -0.4717
     15 C         140.0867  141.8833  158.7389 C.ar    1  UNL1        0.0245
     16 C         141.0912  142.2391  157.6832 C.ar    1  UNL1        0.0200
     17 C         140.7754  141.9998  156.2365 C.ar    1  UNL1        0.1019
     18 N         139.4551  141.4046  155.8455 N.ar    1  UNL1       -0.2076
     19 C         138.4507  141.0488  156.9012 C.ar    1  UNL1        0.2598
     20 C         138.7665  141.2881  158.3479 C.ar    1  UNL1        0.1879
     21 O         137.1306  140.4537  156.5101 O.3     1  UNL1       -0.4541
     22 C         136.0252  141.3395  156.0167 C.3     1  UNL1        0.2543
     23 O         137.7621  140.9323  159.4036 O.3     1  UNL1       -0.4670
     24 C         137.6802  139.5253  159.9172 C.3     1  UNL1        0.2527
     25 C         140.6863  143.5131  160.6713 C.3     1  UNL1        0.1159
     26 O         139.3150  143.9431  160.2417 O.3     1  UNL1       -0.3820
     27 H         138.7729  144.1249  161.0252 H       1  UNL1        0.2107
     28 C         142.0576  143.0831  161.1009 C.ar    1  UNL1        0.0026
     29 C         143.1703  143.0125  160.0975 C.ar    1  UNL1        0.0011
     30 C         144.5416  142.5824  160.5272 C.ar    1  UNL1        0.0372
     31 C         144.8002  142.2230  161.9603 C.ar    1  UNL1        0.1454
     32 O         146.0390  141.7677  162.6731 O.2     1  UNL1       -0.4504
     33 C         145.6920  141.5569  164.1171 C.ar    1  UNL1        0.1796
     34 C         144.2387  141.8819  164.2967 C.ar    1  UNL1        0.0437
     35 C         143.6875  142.2936  162.9638 C.ar    1  UNL1        0.0375
     36 C         142.3163  142.7236  162.5341 C.ar    1  UNL1        0.0011
     37 C         140.9702  144.9036  161.1569 C.3     1  UNL1        0.0491
     38 C         139.9624  145.6226  162.0038 C.3     1  UNL1        0.0750
     39 N         139.3281  144.9244  163.1702 N.3     1  UNL1       -0.2702
     40 C         140.1135  144.7022  164.4287 C.3     1  UNL1        0.0897
     41 C         137.9087  144.4485  163.0781 C.3     1  UNL1        0.0897
@<TRIPOS>BOND
     1    13    14    1
     2    14     2    1
     3     2     3   ar
     4     3     4   ar
     5     4     5   ar
     6     5     6   ar
     7     6     7   ar
     8     7     8    1
     9     7     9   ar
    10     9    10   ar
    11    10    11   ar
    12    11    12   ar
    13     1    12    1
    14     1    15    1
    15    15    16   ar
    16    16    17   ar
    17    17    18   ar
    18    18    19   ar
    19    19    21    1
    20    21    22    1
    21    19    20   ar
    22    20    23    1
    23    23    24    1
    24     1    25    1
    25    25    26    1
    26    25    37    1
    27    37    38    1
    28    38    39    1
    29    39    40    1
    30    39    41    1
    31    25    28    1
    32    28    29   ar
    33    29    30   ar
    34    30    31   ar
    35    31    32   ar
    36    32    33   ar
    37    33    34   ar
    38    34    35   ar
    39    35    36   ar
    40    12     2   ar
    41    20    15   ar
    42    36    28   ar
    43    10     4   ar
    44    35    31   ar
    45    26    27    1
@<TRIPOS>MOLECULE
*****
 41 45 0 0 0
SMALL
GASTEIGER

@<TRIPOS>ATOM
      1 C         140.4000  140.6244  159.9437 C.3     1  UNL1        0.0792
      2 C         139.2051  139.7674  157.8017 C.ar    1  UNL1        0.1351
      3 C         139.1567  138.8390  156.6244 C.ar    1  UNL1        0.0366
      4 C         140.2547  137.8395  156.4118 C.ar    1  UNL1        0.0030
      5 C         140.2063  136.9112  155.2346 C.ar    1  UNL1        0.0006
      6 C         141.3043  135.9116  155.0220 C.ar    1  UNL1        0.0067
      7 C         142.4508  135.8403  155.9866 C.ar    1  UNL1        0.0346
      8 BR        143.5488  134.8408  155.7740 Br      1  UNL1       -0.0490
      9 C         142.4992  136.7686  157.1639 C.ar    1  UNL1        0.0067
     10 C         141.4012  137.7682  157.3765 C.ar    1  UNL1        0.0004
     11 C         141.4496  138.6965  158.5537 C.ar    1  UNL1       -0.0009
     12 C         140.3516  139.6961  158.7664 C.ar    1  UNL1        0.0182
     13 C         138.0366  141.9969  157.1586 C.3     1  UNL1        0.2525
     14 O         138.1071  140.7669  158.0143 O.3     1  UNL1       -0.4717
     15 C         140.8989  142.0285  159.7716 C.ar    1  UNL1        0.0245
     16 C         142.2866  142.2737  159.2573 C.ar    1  UNL1        0.0200
     17 C         142.7854  143.6778  159.0852 C.ar    1  UNL1        0.1019
     18 N         141.8966  144.8367  159.4274 N.ar    1  UNL1       -0.2076
     19 C         140.5090  144.5915  159.9415 C.ar    1  UNL1        0.2598
     20 C         140.0102  143.1874  160.1136 C.ar    1  UNL1        0.1879
     21 O         139.6203  145.7504  160.2836 O.3     1  UNL1       -0.4541
     22 C         139.7035  146.3845  161.6404 C.3     1  UNL1        0.2543
     23 O         138.6226  142.9421  160.6278 O.3     1  UNL1       -0.4670
     24 C         138.3061  143.1792  162.0748 C.3     1  UNL1        0.2527
     25 C         139.9497  140.1485  161.2930 C.3     1  UNL1        0.1159
     26 O         138.5461  140.0212  160.7796 O.3     1  UNL1       -0.3820
     27 H         138.3060  139.0831  160.7239 H       1  UNL1        0.2107
     28 C         141.3533  140.2758  161.8064 C.ar    1  UNL1        0.0026
     29 C         142.3847  139.2534  161.4313 C.ar    1  UNL1        0.0011
     30 C         143.7884  139.3807  161.9447 C.ar    1  UNL1        0.0372
     31 C         144.1606  140.5305  162.8332 C.ar    1  UNL1        0.1454
     32 O         145.4544  140.9158  163.4871 O.2     1  UNL1       -0.4504
     33 C         145.2226  142.1764  164.2663 C.ar    1  UNL1        0.1796
     34 C         143.7855  142.5702  164.0940 C.ar    1  UNL1        0.0437
     35 C         143.1291  141.5530  163.2083 C.ar    1  UNL1        0.0375
     36 C         141.7255  141.4257  162.6949 C.ar    1  UNL1        0.0011
     37 C         139.4993  139.6727  162.6423 C.3     1  UNL1        0.0491
     38 C         139.3074  138.2067  162.8950 C.3     1  UNL1        0.0750
     39 N         139.7481  137.6060  164.1970 N.3     1  UNL1       -0.2702
     40 C         138.7805  137.4964  165.3380 C.3     1  UNL1        0.0897
     41 C         141.1563  137.1151  164.3581 C.3     1  UNL1        0.0897
@<TRIPOS>BOND
     1    13    14    1
     2    14     2    1
     3     2     3   ar
     4     3     4   ar
     5     4     5   ar
     6     5     6   ar
     7     6     7   ar
     8     7     8    1
     9     7     9   ar
    10     9    10   ar
    11    10    11   ar
    12    11    12   ar
    13     1    12    1
    14     1    15    1
    15    15    16   ar
    16    16    17   ar
    17    17    18   ar
    18    18    19   ar
    19    19    21    1
    20    21    22    1
    21    19    20   ar
    22    20    23    1
    23    23    24    1
    24     1    25    1
    25    25    26    1
    26    25    37    1
    27    37    38    1
    28    38    39    1
    29    39    40    1
    30    39    41    1
    31    25    28    1
    32    28    29   ar
    33    29    30   ar
    34    30    31   ar
    35    31    32   ar
    36    32    33   ar
    37    33    34   ar
    38    34    35   ar
    39    35    36   ar
    40    12     2   ar
    41    20    15   ar
    42    36    28   ar
    43    10     4   ar
    44    35    31   ar
    45    26    27    1
@<TRIPOS>MOLECULE
*****
 41 45 0 0 0
SMALL
GASTEIGER

@<TRIPOS>ATOM
      1 C         141.7030  141.5489  159.1550 C.3     1  UNL1        0.0792
      2 C         140.2175  139.6537  160.1307 C.ar    1  UNL1        0.1351
      3 C         139.9175  138.6702  161.2229 C.ar    1  UNL1        0.0366
      4 C         140.8031  138.5983  162.4314 C.ar    1  UNL1        0.0030
      5 C         140.5032  137.6148  163.5235 C.ar    1  UNL1        0.0006
      6 C         141.3887  137.5429  164.7321 C.ar    1  UNL1        0.0067
      7 C         142.5742  138.4545  164.8486 C.ar    1  UNL1        0.0346
      8 BR        143.4597  138.3825  166.0571 Br      1  UNL1       -0.0490
      9 C         142.8742  139.4380  163.7564 C.ar    1  UNL1        0.0067
     10 C         141.9886  139.5099  162.5479 C.ar    1  UNL1        0.0004
     11 C         142.2886  140.4934  161.4557 C.ar    1  UNL1       -0.0009
     12 C         141.4030  140.5653  160.2472 C.ar    1  UNL1        0.0182
     13 C         137.9359  140.2601  159.0461 C.3     1  UNL1        0.2525
     14 O         139.3320  139.7257  158.9222 O.3     1  UNL1       -0.4717
     15 C         143.0295  141.5115  158.4557 C.ar    1  UNL1        0.0245
     16 C         144.0285  142.6072  158.6833 C.ar    1  UNL1        0.0200
     17 C         145.3549  142.5699  157.9840 C.ar    1  UNL1        0.1019
     18 N         145.6825  141.4369  157.0570 N.ar    1  UNL1       -0.2076
     19 C         144.6836  140.3413  156.8295 C.ar    1  UNL1        0.2598
     20 C         143.3571  140.3786  157.5288 C.ar    1  UNL1        0.1879
     21 O         145.0111  139.2084  155.9026 O.3     1  UNL1       -0.4541
     22 C         144.8575  139.3833  154.4208 C.3     1  UNL1        0.2543
     23 O         142.3582  139.2830  157.3013 O.3     1  UNL1       -0.4670
     24 C         142.5789  137.9289  157.9078 C.3     1  UNL1        0.2527
     25 C         140.6766  142.5697  158.7623 C.3     1  UNL1        0.1159
     26 O         140.6094  141.9732  157.3877 O.3     1  UNL1       -0.3820
     27 H         139.7525  141.5348  157.2670 H       1  UNL1        0.2107
     28 C         140.7438  143.1662  160.1369 C.ar    1  UNL1        0.0026
     29 C         141.9689  143.9154  160.5702 C.ar    1  UNL1        0.0011
     30 C         142.0361  144.5119  161.9449 C.ar    1  UNL1        0.0372
     31 C         140.8783  144.3592  162.8862 C.ar    1  UNL1        0.1454
     32 O         140.6579  144.8344  164.2918 O.2     1  UNL1       -0.4504
     33 C         139.2967  144.3788  164.7272 C.ar    1  UNL1        0.1796
     34 C         138.6758  143.6221  163.5906 C.ar    1  UNL1        0.0437
     35 C         139.6532  143.6099  162.4528 C.ar    1  UNL1        0.0375
     36 C         139.5859  143.0134  161.0782 C.ar    1  UNL1        0.0011
     37 C         139.6501  143.5905  158.3695 C.3     1  UNL1        0.0491
     38 C         139.8000  144.3486  157.0839 C.3     1  UNL1        0.0750
     39 N         141.1331  144.9200  156.7012 N.3     1  UNL1       -0.2702
     40 C         141.7900  144.4983  155.4203 C.3     1  UNL1        0.0897
     41 C         141.8093  145.9130  157.5993 C.3     1  UNL1        0.0897
@<TRIPOS>BOND
     1    13    14    1
     2    14     2    1
     3     2     3   ar
     4     3     4   ar
     5     4     5   ar
     6     5     6   ar
     7     6     7   ar
     8     7     8    1
     9     7     9   ar
    10     9    10   ar
    11    10    11   ar
    12    11    12   ar
    13     1    12    1
    14     1    15    1
    15    15    16   ar
    16    16    17   ar
    17    17    18   ar
    18    18    19   ar
    19    19    21    1
    20    21    22    1
    21    19    20   ar
    22    20    23    1
    23    23    24    1
    24     1    25    1
    25    25    26    1
    26    25    37    1
    27    37    38    1
    28    38    39    1
    29    39    40    1
    30    39    41    1
    31    25    28    1
    32    28    29   ar
    33    29    30   ar
    34    30    31   ar
    35    31    32   ar
    36    32    33   ar
    37    33    34   ar
    38    34    35   ar
    39    35    36   ar
    40    12     2   ar
    41    20    15   ar
    42    36    28   ar
    43    10     4   ar
    44    35    31   ar
    45    26    27    1
