@<TRIPOS>MOLECULE
*****
 22 23 0 0 0
SMALL
GASTEIGER

@<TRIPOS>ATOM
      1 C         138.7525  143.2295  163.9905 C.ar    1  UNL1        0.0306
      2 C         138.7994  144.5154  163.2198 C.ar    1  UNL1        0.0329
      3 C         140.1076  145.2203  163.0159 C.ar    1  UNL1        0.1737
      4 F         140.1545  146.5063  162.2451 F       1  UNL1       -0.2010
      5 C         141.3690  144.6394  163.5828 C.ar    1  UNL1        0.1690
      6 C         141.3221  143.3534  164.3536 C.ar    1  UNL1        0.0764
      7 C         140.0138  142.6485  164.5574 C.ar    1  UNL1        0.1457
      8 O         142.6772  145.3443  163.3789 O.3     1  UNL1       -0.4691
      9 C         143.8929  144.5661  162.9709 C.3     1  UNL1        0.2526
     10 C         137.4442  142.5245  164.1944 C.3     1  UNL1        0.0988
     11 C         137.7844  141.2464  161.9582 C.3     1  UNL1        0.0861
     12 N         136.9647  141.5261  163.1829 N.3     1  UNL1       -0.2925
     13 H         136.8562  140.6386  163.6737 H       1  UNL1        0.1236
     14 O         139.9670  141.3625  165.3282 O.3     1  UNL1       -0.4536
     15 C         140.1771  141.3702  166.8134 C.ar    1  UNL1        0.1462
     16 C         140.2927  140.0750  167.5613 C.ar    1  UNL1        0.0384
     17 C         140.5028  140.0827  169.0464 C.ar    1  UNL1        0.0154
     18 C         140.5973  141.3855  169.7838 C.ar    1  UNL1        0.0684
     19 CL        140.8074  141.3932  171.2690 Cl      1  UNL1       -0.0814
     20 C         140.4816  142.6806  169.0360 C.ar    1  UNL1        0.0712
     21 CL        140.5760  143.9835  169.7734 Cl      1  UNL1       -0.0813
     22 C         140.2715  142.6730  167.5508 C.ar    1  UNL1        0.0497
@<TRIPOS>BOND
     1    11    12    1
     2    12    10    1
     3    10     1    1
     4     1     2   ar
     5     2     3   ar
     6     3     4    1
     7     3     5   ar
     8     5     8    1
     9     8     9    1
    10     5     6   ar
    11     6     7   ar
    12     7    14    1
    13    14    15    1
    14    15    16   ar
    15    16    17   ar
    16    17    18   ar
    17    18    19    1
    18    18    20   ar
    19    20    21    1
    20    20    22   ar
    21     7     1   ar
    22    22    15   ar
    23    12    13    1
@<TRIPOS>MOLECULE
*****
 22 23 0 0 0
SMALL
GASTEIGER

@<TRIPOS>ATOM
      1 C         138.2734  139.6533  162.9537 C.ar    1  UNL1        0.0306
      2 C         138.1961  140.4504  161.6854 C.ar    1  UNL1        0.0329
      3 C         138.0031  141.9367  161.7443 C.ar    1  UNL1        0.1737
      4 F         137.9258  142.7338  160.4759 F       1  UNL1       -0.2010
      5 C         137.8875  142.6260  163.0714 C.ar    1  UNL1        0.1690
      6 C         137.9648  141.8289  164.3397 C.ar    1  UNL1        0.0764
      7 C         138.1578  140.3426  164.2809 C.ar    1  UNL1        0.1457
      8 O         137.6945  144.1124  163.1303 O.3     1  UNL1       -0.4691
      9 C         138.8533  145.0298  162.8743 C.3     1  UNL1        0.2526
     10 C         138.4664  138.1669  162.8948 C.3     1  UNL1        0.0988
     11 C         140.8979  137.2856  163.1417 C.3     1  UNL1        0.0861
     12 N         139.5343  137.5159  163.7228 N.3     1  UNL1       -0.2925
     13 H         139.6614  138.0985  164.5503 H       1  UNL1        0.1236
     14 O         138.2351  139.5455  165.5493 O.3     1  UNL1       -0.4536
     15 C         139.3793  139.7528  166.4968 C.ar    1  UNL1        0.1462
     16 C         140.7760  139.8906  165.9673 C.ar    1  UNL1        0.0384
     17 C         141.9202  140.0980  166.9148 C.ar    1  UNL1        0.0154
     18 C         141.6678  140.1675  168.3918 C.ar    1  UNL1        0.0684
     19 CL        142.8119  140.3749  169.3393 Cl      1  UNL1       -0.0814
     20 C         140.2711  140.0297  168.9212 C.ar    1  UNL1        0.0712
     21 CL        140.0187  140.0993  170.3982 Cl      1  UNL1       -0.0813
     22 C         139.1268  139.8224  167.9737 C.ar    1  UNL1        0.0497
@<TRIPOS>BOND
     1    11    12    1
     2    12    10    1
     3    10     1    1
     4     1     2   ar
     5     2     3   ar
     6     3     4    1
     7     3     5   ar
     8     5     8    1
     9     8     9    1
    10     5     6   ar
    11     6     7   ar
    12     7    14    1
    13    14    15    1
    14    15    16   ar
    15    16    17   ar
    16    17    18   ar
    17    18    19    1
    18    18    20   ar
    19    20    21    1
    20    20    22   ar
    21     7     1   ar
    22    22    15   ar
    23    12    13    1
@<TRIPOS>MOLECULE
*****
 22 23 0 0 0
SMALL
GASTEIGER

@<TRIPOS>ATOM
      1 C         139.6651  138.2319  164.5491 C.ar    1  UNL1        0.0306
      2 C         138.4217  137.8281  165.2846 C.ar    1  UNL1        0.0329
      3 C         138.1576  138.3625  166.6611 C.ar    1  UNL1        0.1737
      4 F         136.9142  137.9586  167.3966 F       1  UNL1       -0.2010
      5 C         139.1368  139.3006  167.3021 C.ar    1  UNL1        0.1690
      6 C         140.3802  139.7044  166.5666 C.ar    1  UNL1        0.0764
      7 C         140.6443  139.1701  165.1901 C.ar    1  UNL1        0.1457
      8 O         138.8727  139.8350  168.6785 O.3     1  UNL1       -0.4691
      9 C         140.0194  140.1846  169.5801 C.3     1  UNL1        0.2526
     10 C         139.9292  137.6975  163.1726 C.3     1  UNL1        0.0988
     11 C         142.1106  137.6539  161.7621 C.3     1  UNL1        0.0861
     12 N         141.2560  137.0762  162.8511 N.3     1  UNL1       -0.2925
     13 H         141.8100  137.1055  163.7070 H       1  UNL1        0.1236
     14 O         141.8877  139.5739  164.4546 O.3     1  UNL1       -0.4536
     15 C         142.2226  141.0266  164.2887 C.ar    1  UNL1        0.1462
     16 C         141.4391  141.8721  163.3288 C.ar    1  UNL1        0.0384
     17 C         141.7740  143.3247  163.1630 C.ar    1  UNL1        0.0154
     18 C         142.8924  143.9320  163.9570 C.ar    1  UNL1        0.0684
     19 CL        143.2272  145.3847  163.7912 Cl      1  UNL1       -0.0814
     20 C         143.6759  143.0866  164.9169 C.ar    1  UNL1        0.0712
     21 CL        144.7942  143.6938  165.7109 Cl      1  UNL1       -0.0813
     22 C         143.3410  141.6338  165.0827 C.ar    1  UNL1        0.0497
@<TRIPOS>BOND
     1    11    12    1
     2    12    10    1
     3    10     1    1
     4     1     2   ar
     5     2     3   ar
     6     3     4    1
     7     3     5   ar
     8     5     8    1
     9     8     9    1
    10     5     6   ar
    11     6     7   ar
    12     7    14    1
    13    14    15    1
    14    15    16   ar
    15    16    17   ar
    16    17    18   ar
    17    18    19    1
    18    18    20   ar
    19    20    21    1
    20    20    22   ar
    21     7     1   ar
    22    22    15   ar
    23    12    13    1
@<TRIPOS>MOLECULE
*****
 22 23 0 0 0
SMALL
GASTEIGER

@<TRIPOS>ATOM
      1 C         141.7512  144.5026  163.9545 C.ar    1  UNL1        0.0306
      2 C         140.5147  145.0462  163.3022 C.ar    1  UNL1        0.0329
      3 C         139.2088  144.3232  163.4505 C.ar    1  UNL1        0.1737
      4 F         137.9723  144.8668  162.7981 F       1  UNL1       -0.2010
      5 C         139.1394  143.0567  164.2511 C.ar    1  UNL1        0.1690
      6 C         140.3759  142.5131  164.9034 C.ar    1  UNL1        0.0764
      7 C         141.6818  143.2361  164.7552 C.ar    1  UNL1        0.1457
      8 O         137.8335  142.3337  164.3994 O.3     1  UNL1       -0.4691
      9 C         137.3396  141.4439  163.2975 C.3     1  UNL1        0.2526
     10 C         143.0570  145.2256  163.8062 C.3     1  UNL1        0.0988
     11 C         143.9585  143.6122  161.9803 C.3     1  UNL1        0.0861
     12 N         143.9210  144.9750  162.6060 N.3     1  UNL1       -0.2925
     13 H         143.6134  145.6234  161.8812 H       1  UNL1        0.1236
     14 O         142.9183  142.6925  165.4076 O.3     1  UNL1       -0.4536
     15 C         142.8012  141.7218  166.5451 C.ar    1  UNL1        0.1462
     16 C         142.8780  140.2468  166.2833 C.ar    1  UNL1        0.0384
     17 C         142.7609  139.2761  167.4208 C.ar    1  UNL1        0.0154
     18 C         142.5670  139.7804  168.8202 C.ar    1  UNL1        0.0684
     19 CL        142.4500  138.8097  169.9577 Cl      1  UNL1       -0.0814
     20 C         142.4902  141.2553  169.0820 C.ar    1  UNL1        0.0712
     21 CL        142.2963  141.7596  170.4813 Cl      1  UNL1       -0.0813
     22 C         142.6073  142.2261  167.9444 C.ar    1  UNL1        0.0497
@<TRIPOS>BOND
     1    11    12    1
     2    12    10    1
     3    10     1    1
     4     1     2   ar
     5     2     3   ar
     6     3     4    1
     7     3     5   ar
     8     5     8    1
     9     8     9    1
    10     5     6   ar
    11     6     7   ar
    12     7    14    1
    13    14    15    1
    14    15    16   ar
    15    16    17   ar
    16    17    18   ar
    17    18    19    1
    18    18    20   ar
    19    20    21    1
    20    20    22   ar
    21     7     1   ar
    22    22    15   ar
    23    12    13    1
@<TRIPOS>MOLECULE
*****
 22 23 0 0 0
SMALL
GASTEIGER

@<TRIPOS>ATOM
      1 C         139.7611  138.4606  163.2140 C.ar    1  UNL1        0.0306
      2 C         138.8184  138.6045  162.0562 C.ar    1  UNL1        0.0329
      3 C         137.9162  139.7996  161.9677 C.ar    1  UNL1        0.1737
      4 F         136.9735  139.9435  160.8097 F       1  UNL1       -0.2010
      5 C         137.9566  140.8507  163.0370 C.ar    1  UNL1        0.1690
      6 C         138.8993  140.7068  164.1948 C.ar    1  UNL1        0.0764
      7 C         139.8015  139.5117  164.2833 C.ar    1  UNL1        0.1457
      8 O         137.0544  142.0457  162.9484 O.3     1  UNL1       -0.4691
      9 C         137.6375  143.4277  162.9533 C.3     1  UNL1        0.2526
     10 C         140.6633  137.2655  163.3026 C.3     1  UNL1        0.0988
     11 C         142.9075  138.0785  162.2765 C.3     1  UNL1        0.0861
     12 N         141.7778  137.0923  162.3137 N.3     1  UNL1       -0.2925
     13 H         142.1914  136.1774  162.4935 H       1  UNL1        0.1236
     14 O         140.7442  139.3678  165.4412 O.3     1  UNL1       -0.4536
     15 C         140.5790  140.2336  166.6549 C.ar    1  UNL1        0.1462
     16 C         141.3489  141.5157  166.7721 C.ar    1  UNL1        0.0384
     17 C         141.1837  142.3815  167.9858 C.ar    1  UNL1        0.0154
     18 C         140.2486  141.9653  169.0824 C.ar    1  UNL1        0.0684
     19 CL        140.0834  142.8310  170.2960 Cl      1  UNL1       -0.0814
     20 C         139.4787  140.6833  168.9652 C.ar    1  UNL1        0.0712
     21 CL        138.5436  140.2671  170.0617 Cl      1  UNL1       -0.0813
     22 C         139.6439  139.8174  167.7515 C.ar    1  UNL1        0.0497
@<TRIPOS>BOND
     1    11    12    1
     2    12    10    1
     3    10     1    1
     4     1     2   ar
     5     2     3   ar
     6     3     4    1
     7     3     5   ar
     8     5     8    1
     9     8     9    1
    10     5     6   ar
    11     6     7   ar
    12     7    14    1
    13    14    15    1
    14    15    16   ar
    15    16    17   ar
    16    17    18   ar
    17    18    19    1
    18    18    20   ar
    19    20    21    1
    20    20    22   ar
    21     7     1   ar
    22    22    15   ar
    23    12    13    1
@<TRIPOS>MOLECULE
*****
 22 23 0 0 0
SMALL
GASTEIGER

@<TRIPOS>ATOM
      1 C         141.5545  140.6192  167.6004 C.ar    1  UNL1        0.0306
      2 C         142.6907  139.6421  167.6649 C.ar    1  UNL1        0.0329
      3 C         142.9148  138.6769  166.5387 C.ar    1  UNL1        0.1737
      4 F         144.0511  137.6998  166.6032 F       1  UNL1       -0.2010
      5 C         142.0026  138.6888  165.3481 C.ar    1  UNL1        0.1690
      6 C         140.8663  139.6659  165.2836 C.ar    1  UNL1        0.0764
      7 C         140.6423  140.6311  166.4097 C.ar    1  UNL1        0.1457
      8 O         142.2266  137.7237  164.2219 O.3     1  UNL1       -0.4691
      9 C         141.0720  137.2798  163.3736 C.3     1  UNL1        0.2526
     10 C         141.3304  141.5844  168.7265 C.3     1  UNL1        0.0988
     11 C         139.2398  140.5455  169.8668 C.3     1  UNL1        0.0861
     12 N         139.9613  141.7411  169.3188 N.3     1  UNL1       -0.2925
     13 H         140.0463  142.4100  170.0841 H       1  UNL1        0.1236
     14 O         139.5059  141.6082  166.3452 O.3     1  UNL1       -0.4536
     15 C         139.5152  142.7026  165.3195 C.ar    1  UNL1        0.1462
     16 C         138.2743  143.0032  164.5321 C.ar    1  UNL1        0.0384
     17 C         138.2836  144.0976  163.5065 C.ar    1  UNL1        0.0154
     18 C         139.5337  144.8916  163.2681 C.ar    1  UNL1        0.0684
     19 CL        139.5430  145.9860  162.2425 Cl      1  UNL1       -0.0814
     20 C         140.7746  144.5911  164.0555 C.ar    1  UNL1        0.0712
     21 CL        142.0247  145.3851  163.8172 Cl      1  UNL1       -0.0813
     22 C         140.7653  143.4966  165.0812 C.ar    1  UNL1        0.0497
@<TRIPOS>BOND
     1    11    12    1
     2    12    10    1
     3    10     1    1
     4     1     2   ar
     5     2     3   ar
     6     3     4    1
     7     3     5   ar
     8     5     8    1
     9     8     9    1
    10     5     6   ar
    11     6     7   ar
    12     7    14    1
    13    14    15    1
    14    15    16   ar
    15    16    17   ar
    16    17    18   ar
    17    18    19    1
    18    18    20   ar
    19    20    21    1
    20    20    22   ar
    21     7     1   ar
    22    22    15   ar
    23    12    13    1
@<TRIPOS>MOLECULE
*****
 22 23 0 0 0
SMALL
GASTEIGER

@<TRIPOS>ATOM
      1 C         140.8301  144.2167  163.7208 C.ar    1  UNL1        0.0306
      2 C         141.9524  145.0572  163.1882 C.ar    1  UNL1        0.0329
      3 C         143.3733  144.6097  163.3637 C.ar    1  UNL1        0.1737
      4 F         144.4957  145.4503  162.8310 F       1  UNL1       -0.2010
      5 C         143.6718  143.3215  164.0718 C.ar    1  UNL1        0.1690
      6 C         142.5495  142.4809  164.6044 C.ar    1  UNL1        0.0764
      7 C         141.1286  142.9285  164.4289 C.ar    1  UNL1        0.1457
      8 O         145.0927  142.8739  164.2473 O.3     1  UNL1       -0.4691
      9 C         145.6293  141.7409  163.4238 C.3     1  UNL1        0.2526
     10 C         139.4092  144.6642  163.5453 C.3     1  UNL1        0.0988
     11 C         138.3846  145.1253  165.8878 C.3     1  UNL1        0.0861
     12 N         138.3895  144.3547  164.6009 N.3     1  UNL1       -0.2925
     13 H         137.4732  144.4892  164.1736 H       1  UNL1        0.1236
     14 O         140.0062  142.0878  164.9615 O.3     1  UNL1       -0.4536
     15 C         140.0008  141.6695  166.4020 C.ar    1  UNL1        0.1462
     16 C         139.5046  140.3068  166.7854 C.ar    1  UNL1        0.0384
     17 C         139.4992  139.8884  168.2258 C.ar    1  UNL1        0.0154
     18 C         139.9899  140.8328  169.2829 C.ar    1  UNL1        0.0684
     19 CL        139.9845  140.4144  170.7234 Cl      1  UNL1       -0.0814
     20 C         140.4861  142.1954  168.8996 C.ar    1  UNL1        0.0712
     21 CL        140.9768  143.1397  169.9567 Cl      1  UNL1       -0.0813
     22 C         140.4915  142.6138  167.4591 C.ar    1  UNL1        0.0497
@<TRIPOS>BOND
     1    11    12    1
     2    12    10    1
     3    10     1    1
     4     1     2   ar
     5     2     3   ar
     6     3     4    1
     7     3     5   ar
     8     5     8    1
     9     8     9    1
    10     5     6   ar
    11     6     7   ar
    12     7    14    1
    13    14    15    1
    14    15    16   ar
    15    16    17   ar
    16    17    18   ar
    17    18    19    1
    18    18    20   ar
    19    20    21    1
    20    20    22   ar
    21     7     1   ar
    22    22    15   ar
    23    12    13    1
@<TRIPOS>MOLECULE
*****
 22 23 0 0 0
SMALL
GASTEIGER

@<TRIPOS>ATOM
      1 C         141.6293  139.3161  166.7547 C.ar    1  UNL1        0.0306
      2 C         142.6360  139.4286  167.8609 C.ar    1  UNL1        0.0329
      3 C         142.2024  139.8688  169.2277 C.ar    1  UNL1        0.1737
      4 F         143.2092  139.9812  170.3340 F       1  UNL1       -0.2010
      5 C         140.7620  140.1965  169.4883 C.ar    1  UNL1        0.1690
      6 C         139.7553  140.0840  168.3820 C.ar    1  UNL1        0.0764
      7 C         140.1890  139.6438  167.0152 C.ar    1  UNL1        0.1457
      8 O         140.3283  140.6366  170.8551 O.3     1  UNL1       -0.4691
      9 C         140.6940  142.0031  171.3541 C.3     1  UNL1        0.2526
     10 C         142.0630  138.8759  165.3878 C.3     1  UNL1        0.0988
     11 C         141.3871  137.5164  163.2796 C.3     1  UNL1        0.0861
     12 N         141.4666  137.6451  164.7719 N.3     1  UNL1       -0.2925
     13 H         142.0149  136.8530  165.1070 H       1  UNL1        0.1236
     14 O         139.1822  139.5314  165.9089 O.3     1  UNL1       -0.4536
     15 C         138.7833  140.7503  165.1311 C.ar    1  UNL1        0.1462
     16 C         137.8709  140.6194  163.9476 C.ar    1  UNL1        0.0384
     17 C         137.4721  141.8383  163.1697 C.ar    1  UNL1        0.0154
     18 C         137.9855  143.1881  163.5753 C.ar    1  UNL1        0.0684
     19 CL        137.5866  144.4070  162.7974 Cl      1  UNL1       -0.0814
     20 C         138.8978  143.3190  164.7587 C.ar    1  UNL1        0.0712
     21 CL        139.4113  144.6688  165.1643 Cl      1  UNL1       -0.0813
     22 C         139.2967  142.1000  165.5366 C.ar    1  UNL1        0.0497
@<TRIPOS>BOND
     1    11    12    1
     2    12    10    1
     3    10     1    1
     4     1     2   ar
     5     2     3   ar
     6     3     4    1
     7     3     5   ar
     8     5     8    1
     9     8     9    1
    10     5     6   ar
    11     6     7   ar
    12     7    14    1
    13    14    15    1
    14    15    16   ar
    15    16    17   ar
    16    17    18   ar
    17    18    19    1
    18    18    20   ar
    19    20    21    1
    20    20    22   ar
    21     7     1   ar
    22    22    15   ar
    23    12    13    1
@<TRIPOS>MOLECULE
*****
 22 23 0 0 0
SMALL
GASTEIGER

@<TRIPOS>ATOM
      1 C         142.9642  143.7984  164.3537 C.ar    1  UNL1        0.0306
      2 C         142.5576  144.8296  163.3431 C.ar    1  UNL1        0.0329
      3 C         141.1101  145.1849  163.1749 C.ar    1  UNL1        0.1737
      4 F         140.7035  146.2162  162.1643 F       1  UNL1       -0.2010
      5 C         140.0691  144.5090  164.0171 C.ar    1  UNL1        0.1690
      6 C         140.4756  143.4778  165.0277 C.ar    1  UNL1        0.0764
      7 C         141.9232  143.1225  165.1959 C.ar    1  UNL1        0.1457
      8 O         138.6215  144.8643  163.8488 O.3     1  UNL1       -0.4691
      9 C         137.7133  143.9610  163.0683 C.3     1  UNL1        0.2526
     10 C         144.4117  143.4430  164.5220 C.3     1  UNL1        0.0988
     11 C         144.6102  141.0594  163.5077 C.3     1  UNL1        0.0861
     12 N         145.0652  142.4874  163.5682 N.3     1  UNL1       -0.2925
     13 H         144.9430  142.8753  162.6328 H       1  UNL1        0.1236
     14 O         142.3297  142.0912  166.2065 O.3     1  UNL1       -0.4536
     15 C         141.3412  141.6110  167.2274 C.ar    1  UNL1        0.1462
     16 C         140.5967  140.3278  167.0049 C.ar    1  UNL1        0.0384
     17 C         139.6082  139.8476  168.0258 C.ar    1  UNL1        0.0154
     18 C         139.3641  140.6505  169.2691 C.ar    1  UNL1        0.0684
     19 CL        138.3756  140.1703  170.2900 Cl      1  UNL1       -0.0814
     20 C         140.1085  141.9335  169.4916 C.ar    1  UNL1        0.0712
     21 CL        139.8644  142.7364  170.7349 Cl      1  UNL1       -0.0813
     22 C         141.0971  142.4138  168.4707 C.ar    1  UNL1        0.0497
@<TRIPOS>BOND
     1    11    12    1
     2    12    10    1
     3    10     1    1
     4     1     2   ar
     5     2     3   ar
     6     3     4    1
     7     3     5   ar
     8     5     8    1
     9     8     9    1
    10     5     6   ar
    11     6     7   ar
    12     7    14    1
    13    14    15    1
    14    15    16   ar
    15    16    17   ar
    16    17    18   ar
    17    18    19    1
    18    18    20   ar
    19    20    21    1
    20    20    22   ar
    21     7     1   ar
    22    22    15   ar
    23    12    13    1
