@<TRIPOS>MOLECULE
*****
 35 37 0 0 0
SMALL
GASTEIGER

@<TRIPOS>ATOM
      1 C         142.0323  139.1836  158.5577 C.3     1  UNL1        0.0528
      2 C         140.8577  138.3055  158.2431 C.3     1  UNL1        0.0242
      3 C         139.5940  138.4286  159.0418 C.3     1  UNL1        0.0728
      4 N         139.5050  139.4300  160.1551 N.3     1  UNL1       -0.2689
      5 C         140.6796  140.3082  160.4696 C.3     1  UNL1        0.0728
      6 C         141.9433  140.1850  159.6710 C.3     1  UNL1        0.0242
      7 C         143.4033  139.7868  158.4757 C.2     1  UNL1        0.0513
      8 O         144.2349  139.5941  157.2424 O.co2   1  UNL1       -0.5491
      9 O         143.9425  140.5826  159.6272 O.co2   1  UNL1       -0.5491
     10 C         142.5974  138.3917  157.4160 C.3     1  UNL1        0.0949
     11 C         143.3542  136.0645  156.5434 C.2     1  UNL1        0.2461
     12 O         144.4331  136.7193  155.7328 O.2     1  UNL1       -0.2701
     13 N         142.4363  136.9007  157.3851 N.am    1  UNL1       -0.3005
     14 H         141.7282  136.4710  157.9171 H       1  UNL1        0.1498
     15 C         143.9757  132.2099  157.2550 C.ar    1  UNL1        0.1419
     16 C         142.8709  131.5915  156.4506 C.ar    1  UNL1        0.0738
     17 C         141.9273  132.4640  155.6772 C.ar    1  UNL1        0.1419
     18 C         142.0884  133.9550  155.7081 C.ar    1  UNL1        0.0416
     19 C         143.1931  134.5735  156.5125 C.ar    1  UNL1        0.0594
     20 C         144.1368  133.7009  157.2859 C.ar    1  UNL1        0.0416
     21 C         144.5471  129.9169  158.3346 C.3     1  UNL1        0.2525
     22 O         144.9193  131.3374  158.0284 O.3     1  UNL1       -0.4713
     23 O         140.8225  131.8456  154.8728 O.3     1  UNL1       -0.4713
     24 C         140.8157  131.9816  153.3790 C.3     1  UNL1        0.2525
     25 C         138.2413  139.5532  160.9537 C.3     1  UNL1        0.0991
     26 C         138.2962  139.5321  162.4525 C.ar    1  UNL1       -0.0062
     27 C         137.9321  140.7597  163.2338 C.ar    1  UNL1       -0.0030
     28 C         137.9870  140.7386  164.7327 C.ar    1  UNL1        0.0036
     29 C         138.4061  139.4899  165.4503 C.ar    1  UNL1        0.0714
     30 C         138.7702  138.2622  164.6690 C.ar    1  UNL1        0.0036
     31 C         138.7153  138.2834  163.1702 C.ar    1  UNL1       -0.0030
     32 C         138.4610  139.4687  166.9491 C.3     1  UNL1        0.4186
     33 F         138.5158  139.4475  168.4479 F       1  UNL1       -0.1659
     34 F         137.2945  138.5261  166.9785 F       1  UNL1       -0.1659
     35 F         139.6274  140.4113  166.9197 F       1  UNL1       -0.1659
@<TRIPOS>UNITY_ATOM_ATTR
8 1
charge -1
@<TRIPOS>BOND
     1    21    22    1
     2    22    15    1
     3    15    16   ar
     4    16    17   ar
     5    17    23    1
     6    23    24    1
     7    17    18   ar
     8    18    19   ar
     9    19    11    1
    10    11    12    2
    11    11    13   am
    12    13    10    1
    13    10     1    1
    14     1     7    1
    15     7     8   ar
    16     7     9   ar
    17     1     2    1
    18     2     3    1
    19     3     4    1
    20     4    25    1
    21    25    26    1
    22    26    27   ar
    23    27    28   ar
    24    28    29   ar
    25    29    32    1
    26    32    33    1
    27    32    34    1
    28    32    35    1
    29    29    30   ar
    30    30    31   ar
    31     4     5    1
    32     5     6    1
    33    19    20   ar
    34    20    15   ar
    35     6     1    1
    36    31    26   ar
    37    13    14    1
@<TRIPOS>MOLECULE
*****
 35 37 0 0 0
SMALL
GASTEIGER

@<TRIPOS>ATOM
      1 C         138.5334  139.0625  162.6310 C.3     1  UNL1        0.0528
      2 C         139.0093  137.8608  163.3922 C.3     1  UNL1        0.0242
      3 C         139.0256  137.8811  164.8920 C.3     1  UNL1        0.0728
      4 N         138.5660  139.1032  165.6306 N.3     1  UNL1       -0.2689
      5 C         138.0901  140.3048  164.8694 C.3     1  UNL1        0.0728
      6 C         138.0738  140.2845  163.3696 C.3     1  UNL1        0.0242
      7 C         138.1737  139.9464  161.4737 C.2     1  UNL1        0.0513
      8 O         138.9447  141.2090  161.2263 O.co2   1  UNL1       -0.5491
      9 O         137.0429  139.5676  160.5638 O.co2   1  UNL1       -0.5491
     10 C         138.8681  138.1474  161.4906 C.3     1  UNL1        0.0949
     11 C         141.1979  138.3095  160.3523 C.2     1  UNL1        0.2461
     12 O         141.7964  137.4962  161.4614 O.2     1  UNL1       -0.2701
     13 N         139.7337  138.6352  160.3669 N.am    1  UNL1       -0.3005
     14 H         139.3409  139.1690  159.6389 H       1  UNL1        0.1498
     15 C         143.6456  140.5974  158.2252 C.ar    1  UNL1        0.1419
     16 C         143.7948  139.7727  156.9810 C.ar    1  UNL1        0.0738
     17 C         143.0784  138.4604  156.8607 C.ar    1  UNL1        0.1419
     18 C         142.2128  137.9727  157.9845 C.ar    1  UNL1        0.0416
     19 C         142.0635  138.7973  159.2285 C.ar    1  UNL1        0.0594
     20 C         142.7800  140.1097  159.3489 C.ar    1  UNL1        0.0416
     21 C         145.4868  142.2388  157.4092 C.3     1  UNL1        0.2525
     22 O         144.3620  141.9098  158.3455 O.3     1  UNL1       -0.4713
     23 O         143.2276  137.6357  155.6166 O.3     1  UNL1       -0.4713
     24 C         144.0287  136.3680  155.6487 C.3     1  UNL1        0.2525
     25 C         138.5823  139.1235  167.1303 C.3     1  UNL1        0.0991
     26 C         139.5276  140.0329  167.8578 C.ar    1  UNL1       -0.0062
     27 C         140.7392  140.5716  167.1565 C.ar    1  UNL1       -0.0030
     28 C         141.6846  141.4811  167.8840 C.ar    1  UNL1        0.0036
     29 C         141.4183  141.8518  169.3129 C.ar    1  UNL1        0.0714
     30 C         140.2067  141.3131  170.0142 C.ar    1  UNL1        0.0036
     31 C         139.2615  140.4036  169.2867 C.ar    1  UNL1       -0.0030
     32 C         142.3636  142.7612  170.0404 C.3     1  UNL1        0.4186
     33 F         143.3088  143.6708  170.7679 F       1  UNL1       -0.1659
     34 F         141.3387  143.8559  170.0036 F       1  UNL1       -0.1659
     35 F         143.3885  141.6667  170.0771 F       1  UNL1       -0.1659
@<TRIPOS>UNITY_ATOM_ATTR
8 1
charge -1
@<TRIPOS>BOND
     1    21    22    1
     2    22    15    1
     3    15    16   ar
     4    16    17   ar
     5    17    23    1
     6    23    24    1
     7    17    18   ar
     8    18    19   ar
     9    19    11    1
    10    11    12    2
    11    11    13   am
    12    13    10    1
    13    10     1    1
    14     1     7    1
    15     7     8   ar
    16     7     9   ar
    17     1     2    1
    18     2     3    1
    19     3     4    1
    20     4    25    1
    21    25    26    1
    22    26    27   ar
    23    27    28   ar
    24    28    29   ar
    25    29    32    1
    26    32    33    1
    27    32    34    1
    28    32    35    1
    29    29    30   ar
    30    30    31   ar
    31     4     5    1
    32     5     6    1
    33    19    20   ar
    34    20    15   ar
    35     6     1    1
    36    31    26   ar
    37    13    14    1
@<TRIPOS>MOLECULE
*****
 35 37 0 0 0
SMALL
GASTEIGER

@<TRIPOS>ATOM
      1 C         141.3491  138.8968  158.8835 C.3     1  UNL1        0.0528
      2 C         140.0642  139.1278  158.1449 C.3     1  UNL1        0.0242
      3 C         138.8560  139.6275  158.8800 C.3     1  UNL1        0.0728
      4 N         138.9327  139.8961  160.3538 N.3     1  UNL1       -0.2689
      5 C         140.2176  139.6651  161.0924 C.3     1  UNL1        0.0728
      6 C         141.4258  139.1654  160.3573 C.3     1  UNL1        0.0242
      7 C         142.7801  138.5279  159.1414 C.2     1  UNL1        0.0513
      8 O         143.1080  137.4135  160.0903 O.co2   1  UNL1       -0.5491
      9 O         143.8830  139.2736  158.4503 O.co2   1  UNL1       -0.5491
     10 C         141.7694  138.5001  157.4993 C.3     1  UNL1        0.0949
     11 C         141.8439  136.2053  156.2833 C.2     1  UNL1        0.2461
     12 O         140.5964  136.5632  155.5313 O.2     1  UNL1       -0.2701
     13 N         142.4304  137.1737  157.2674 N.am    1  UNL1       -0.3005
     14 H         143.2492  136.9388  157.7610 H       1  UNL1        0.1498
     15 C         144.0086  132.9360  156.8965 C.ar    1  UNL1        0.1419
     16 C         143.8270  132.2262  155.5875 C.ar    1  UNL1        0.0738
     17 C         142.9845  132.8428  154.5106 C.ar    1  UNL1        0.1419
     18 C         142.3234  134.1692  154.7425 C.ar    1  UNL1        0.0416
     19 C         142.5049  134.8789  156.0514 C.ar    1  UNL1        0.0594
     20 C         143.3475  134.2623  157.1284 C.ar    1  UNL1        0.0416
     21 C         144.9073  130.8276  158.1200 C.3     1  UNL1        0.2525
     22 O         144.8511  132.3194  157.9735 O.3     1  UNL1       -0.4713
     23 O         142.8029  132.1330  153.2016 O.3     1  UNL1       -0.4713
     24 C         142.8962  130.6372  153.1403 C.3     1  UNL1        0.2525
     25 C         137.7244  140.3958  161.0889 C.3     1  UNL1        0.0991
     26 C         137.8730  141.4451  162.1504 C.ar    1  UNL1       -0.0062
     27 C         137.9441  142.8939  161.7680 C.ar    1  UNL1       -0.0030
     28 C         138.0928  143.9433  162.8295 C.ar    1  UNL1        0.0036
     29 C         138.1704  143.5440  164.2733 C.ar    1  UNL1        0.0714
     30 C         138.0993  142.0952  164.6556 C.ar    1  UNL1        0.0036
     31 C         137.9506  141.0459  163.5941 C.ar    1  UNL1       -0.0030
     32 C         138.3190  144.5933  165.3347 C.3     1  UNL1        0.4186
     33 F         138.4675  145.6426  166.3962 F       1  UNL1       -0.1659
     34 F         136.8266  144.6772  165.4607 F       1  UNL1       -0.1659
     35 F         139.8113  144.5094  165.2088 F       1  UNL1       -0.1659
@<TRIPOS>UNITY_ATOM_ATTR
8 1
charge -1
@<TRIPOS>BOND
     1    21    22    1
     2    22    15    1
     3    15    16   ar
     4    16    17   ar
     5    17    23    1
     6    23    24    1
     7    17    18   ar
     8    18    19   ar
     9    19    11    1
    10    11    12    2
    11    11    13   am
    12    13    10    1
    13    10     1    1
    14     1     7    1
    15     7     8   ar
    16     7     9   ar
    17     1     2    1
    18     2     3    1
    19     3     4    1
    20     4    25    1
    21    25    26    1
    22    26    27   ar
    23    27    28   ar
    24    28    29   ar
    25    29    32    1
    26    32    33    1
    27    32    34    1
    28    32    35    1
    29    29    30   ar
    30    30    31   ar
    31     4     5    1
    32     5     6    1
    33    19    20   ar
    34    20    15   ar
    35     6     1    1
    36    31    26   ar
    37    13    14    1
@<TRIPOS>MOLECULE
*****
 35 37 0 0 0
SMALL
GASTEIGER

@<TRIPOS>ATOM
      1 C         138.5144  139.0431  162.6825 C.3     1  UNL1        0.0528
      2 C         138.9763  137.8380  163.4469 C.3     1  UNL1        0.0242
      3 C         139.0066  137.8673  164.9463 C.3     1  UNL1        0.0728
      4 N         138.5750  139.1017  165.6813 N.3     1  UNL1       -0.2689
      5 C         138.1131  140.3067  164.9168 C.3     1  UNL1        0.0728
      6 C         138.0828  140.2774  163.4174 C.3     1  UNL1        0.0242
      7 C         138.1595  139.9260  161.5229 C.2     1  UNL1        0.0513
      8 O         137.0285  139.5497  160.6123 O.co2   1  UNL1       -0.5491
      9 O         138.9358  141.1851  161.2739 O.co2   1  UNL1       -0.5491
     10 C         138.8227  138.1153  161.5449 C.3     1  UNL1        0.0949
     11 C         141.1406  138.2774  160.3824 C.2     1  UNL1        0.2461
     12 O         141.7582  137.4975  161.5051 O.2     1  UNL1       -0.2701
     13 N         139.6729  138.5863  160.4023 N.am    1  UNL1       -0.3005
     14 H         139.2675  139.0981  159.6654 H       1  UNL1        0.1498
     15 C         142.9728  138.3765  156.8634 C.ar    1  UNL1        0.1419
     16 C         143.6910  139.6903  156.9547 C.ar    1  UNL1        0.0738
     17 C         143.5591  140.5330  158.1885 C.ar    1  UNL1        0.1419
     18 C         142.7090  140.0620  159.3311 C.ar    1  UNL1        0.0416
     19 C         141.9907  138.7483  159.2399 C.ar    1  UNL1        0.0594
     20 C         142.1226  137.9056  158.0060 C.ar    1  UNL1        0.0416
     21 C         144.0561  136.3743  155.6114 C.3     1  UNL1        0.2525
     22 O         143.1047  137.5338  155.6296 O.3     1  UNL1       -0.4713
     23 O         144.2773  141.8468  158.2798 O.3     1  UNL1       -0.4713
     24 C         145.4564  142.1201  157.3939 C.3     1  UNL1        0.2525
     25 C         138.6054  139.1309  167.1807 C.3     1  UNL1        0.0991
     26 C         139.5752  140.0257  167.8939 C.ar    1  UNL1       -0.0062
     27 C         140.8372  140.4606  167.2095 C.ar    1  UNL1       -0.0030
     28 C         141.8072  141.3554  167.9227 C.ar    1  UNL1        0.0036
     29 C         141.5152  141.8152  169.3203 C.ar    1  UNL1        0.0714
     30 C         140.2532  141.3803  170.0047 C.ar    1  UNL1        0.0036
     31 C         139.2833  140.4855  169.2914 C.ar    1  UNL1       -0.0030
     32 C         142.4850  142.7100  170.0335 C.3     1  UNL1        0.4186
     33 F         143.4548  143.6048  170.7467 F       1  UNL1       -0.1659
     34 F         141.4559  143.8009  170.0642 F       1  UNL1       -0.1659
     35 F         143.5140  141.6192  170.0028 F       1  UNL1       -0.1659
@<TRIPOS>UNITY_ATOM_ATTR
8 1
charge -1
@<TRIPOS>BOND
     1    21    22    1
     2    22    15    1
     3    15    16   ar
     4    16    17   ar
     5    17    23    1
     6    23    24    1
     7    17    18   ar
     8    18    19   ar
     9    19    11    1
    10    11    12    2
    11    11    13   am
    12    13    10    1
    13    10     1    1
    14     1     7    1
    15     7     8   ar
    16     7     9   ar
    17     1     2    1
    18     2     3    1
    19     3     4    1
    20     4    25    1
    21    25    26    1
    22    26    27   ar
    23    27    28   ar
    24    28    29   ar
    25    29    32    1
    26    32    33    1
    27    32    34    1
    28    32    35    1
    29    29    30   ar
    30    30    31   ar
    31     4     5    1
    32     5     6    1
    33    19    20   ar
    34    20    15   ar
    35     6     1    1
    36    31    26   ar
    37    13    14    1
@<TRIPOS>MOLECULE
*****
 35 37 0 0 0
SMALL
GASTEIGER

@<TRIPOS>ATOM
      1 C         142.1242  138.8850  158.8690 C.3     1  UNL1        0.0528
      2 C         140.8432  138.4321  158.2335 C.3     1  UNL1        0.0242
      3 C         139.5787  138.3940  159.0394 C.3     1  UNL1        0.0728
      4 N         139.5952  138.8088  160.4809 N.3     1  UNL1       -0.2689
      5 C         140.8762  139.2617  161.1164 C.3     1  UNL1        0.0728
      6 C         142.1407  139.2998  160.3105 C.3     1  UNL1        0.0242
      7 C         143.5745  139.2362  159.0224 C.2     1  UNL1        0.0513
      8 O         144.2835  138.9480  160.3124 O.co2   1  UNL1       -0.5491
      9 O         144.3156  139.8756  157.8858 O.co2   1  UNL1       -0.5491
     10 C         142.6113  138.5922  157.4809 C.3     1  UNL1        0.0949
     11 C         143.5075  136.6353  156.0258 C.2     1  UNL1        0.2461
     12 O         144.7516  137.4211  155.7352 O.2     1  UNL1       -0.2701
     13 N         142.4373  137.2208  156.8987 N.am    1  UNL1       -0.3005
     14 H         141.6207  136.7051  157.0894 H       1  UNL1        0.1498
     15 C         142.4850  133.7220  153.5322 C.ar    1  UNL1        0.1419
     16 C         142.9853  132.5211  154.2790 C.ar    1  UNL1        0.0738
     17 C         143.6597  132.6916  155.6079 C.ar    1  UNL1        0.1419
     18 C         143.8337  134.0630  156.1902 C.ar    1  UNL1        0.0416
     19 C         143.3334  135.2639  155.4435 C.ar    1  UNL1        0.0594
     20 C         142.6590  135.0934  154.1145 C.ar    1  UNL1        0.0416
     21 C         140.3451  133.2383  152.1406 C.3     1  UNL1        0.2525
     22 O         141.8106  133.5515  152.2033 O.3     1  UNL1       -0.4713
     23 O         144.1600  131.4907  156.3547 O.3     1  UNL1       -0.4713
     24 C         144.7210  130.3202  155.6030 C.3     1  UNL1        0.2525
     25 C         138.3307  138.7707  161.2868 C.3     1  UNL1        0.0991
     26 C         138.3862  138.9287  162.7774 C.ar    1  UNL1       -0.0062
     27 C         138.7813  137.7672  163.6405 C.ar    1  UNL1       -0.0030
     28 C         138.8369  137.9252  165.1312 C.ar    1  UNL1        0.0036
     29 C         138.4973  139.2446  165.7587 C.ar    1  UNL1        0.0714
     30 C         138.1022  140.4061  164.8955 C.ar    1  UNL1        0.0036
     31 C         138.0467  140.2481  163.4050 C.ar    1  UNL1       -0.0030
     32 C         138.5529  139.4027  167.2493 C.3     1  UNL1        0.4186
     33 F         138.6083  139.5606  168.7399 F       1  UNL1       -0.1659
     34 F         137.2644  138.6454  167.3775 F       1  UNL1       -0.1659
     35 F         139.8412  140.1599  167.1211 F       1  UNL1       -0.1659
@<TRIPOS>UNITY_ATOM_ATTR
8 1
charge -1
@<TRIPOS>BOND
     1    21    22    1
     2    22    15    1
     3    15    16   ar
     4    16    17   ar
     5    17    23    1
     6    23    24    1
     7    17    18   ar
     8    18    19   ar
     9    19    11    1
    10    11    12    2
    11    11    13   am
    12    13    10    1
    13    10     1    1
    14     1     7    1
    15     7     8   ar
    16     7     9   ar
    17     1     2    1
    18     2     3    1
    19     3     4    1
    20     4    25    1
    21    25    26    1
    22    26    27   ar
    23    27    28   ar
    24    28    29   ar
    25    29    32    1
    26    32    33    1
    27    32    34    1
    28    32    35    1
    29    29    30   ar
    30    30    31   ar
    31     4     5    1
    32     5     6    1
    33    19    20   ar
    34    20    15   ar
    35     6     1    1
    36    31    26   ar
    37    13    14    1
@<TRIPOS>MOLECULE
*****
 35 37 0 0 0
SMALL
GASTEIGER

@<TRIPOS>ATOM
      1 C         141.8464  139.1785  158.5720 C.3     1  UNL1        0.0528
      2 C         140.5016  138.8290  158.0072 C.3     1  UNL1        0.0242
      3 C         139.2539  139.2669  158.7153 C.3     1  UNL1        0.0728
      4 N         139.3511  140.0543  159.9884 N.3     1  UNL1       -0.2689
      5 C         140.6960  140.4038  160.5532 C.3     1  UNL1        0.0728
      6 C         141.9437  139.9660  159.8450 C.3     1  UNL1        0.0242
      7 C         143.3375  139.2650  158.7115 C.2     1  UNL1        0.0513
      8 O         144.1846  139.5944  157.5183 O.co2   1  UNL1       -0.5491
      9 O         143.9813  139.0221  160.0443 O.co2   1  UNL1       -0.5491
     10 C         142.2670  138.4212  157.3474 C.3     1  UNL1        0.0949
     11 C         143.1709  136.1082  156.5838 C.2     1  UNL1        0.2461
     12 O         144.3172  136.7845  155.8922 O.2     1  UNL1       -0.2701
     13 N         142.1457  136.9265  157.3115 N.am    1  UNL1       -0.3005
     14 H         141.3933  136.4827  157.7654 H       1  UNL1        0.1498
     15 C         141.8679  132.4725  155.6705 C.ar    1  UNL1        0.1419
     16 C         142.8071  131.6242  156.4759 C.ar    1  UNL1        0.0738
     17 C         143.8674  132.2706  157.3172 C.ar    1  UNL1        0.1419
     18 C         143.9887  133.7653  157.3532 C.ar    1  UNL1        0.0416
     19 C         143.0496  134.6135  156.5479 C.ar    1  UNL1        0.0594
     20 C         141.9892  133.9671  155.7065 C.ar    1  UNL1        0.0416
     21 C         141.0392  130.4630  154.2475 C.3     1  UNL1        0.2525
     22 O         140.8076  131.8261  154.8292 O.3     1  UNL1       -0.4713
     23 O         144.8065  131.4224  158.1226 O.3     1  UNL1       -0.4713
     24 C         144.6868  129.9277  158.0849 C.3     1  UNL1        0.2525
     25 C         138.1034  140.4922  160.6965 C.3     1  UNL1        0.0991
     26 C         138.1824  141.5117  161.7939 C.ar    1  UNL1       -0.0062
     27 C         137.9243  141.1058  163.2147 C.ar    1  UNL1       -0.0030
     28 C         138.0032  142.1254  164.3122 C.ar    1  UNL1        0.0036
     29 C         138.3403  143.5508  163.9888 C.ar    1  UNL1        0.0714
     30 C         138.5984  143.9566  162.5680 C.ar    1  UNL1        0.0036
     31 C         138.5195  142.9371  161.4706 C.ar    1  UNL1       -0.0030
     32 C         138.4193  144.5703  165.0862 C.3     1  UNL1        0.4186
     33 F         138.4981  145.5898  166.1836 F       1  UNL1       -0.1659
     34 F         136.9459  144.4249  165.3272 F       1  UNL1       -0.1659
     35 F         139.8925  144.7157  164.8452 F       1  UNL1       -0.1659
@<TRIPOS>UNITY_ATOM_ATTR
8 1
charge -1
@<TRIPOS>BOND
     1    21    22    1
     2    22    15    1
     3    15    16   ar
     4    16    17   ar
     5    17    23    1
     6    23    24    1
     7    17    18   ar
     8    18    19   ar
     9    19    11    1
    10    11    12    2
    11    11    13   am
    12    13    10    1
    13    10     1    1
    14     1     7    1
    15     7     8   ar
    16     7     9   ar
    17     1     2    1
    18     2     3    1
    19     3     4    1
    20     4    25    1
    21    25    26    1
    22    26    27   ar
    23    27    28   ar
    24    28    29   ar
    25    29    32    1
    26    32    33    1
    27    32    34    1
    28    32    35    1
    29    29    30   ar
    30    30    31   ar
    31     4     5    1
    32     5     6    1
    33    19    20   ar
    34    20    15   ar
    35     6     1    1
    36    31    26   ar
    37    13    14    1
@<TRIPOS>MOLECULE
*****
 35 37 0 0 0
SMALL
GASTEIGER

@<TRIPOS>ATOM
      1 C         138.1510  141.2667  161.8032 C.3     1  UNL1        0.0528
      2 C         138.2315  139.7707  161.8766 C.3     1  UNL1        0.0242
      3 C         138.2733  139.0864  163.2108 C.3     1  UNL1        0.0728
      4 N         138.2344  139.8983  164.4716 N.3     1  UNL1       -0.2689
      5 C         138.1538  141.3942  164.3982 C.3     1  UNL1        0.0728
      6 C         138.1121  142.0785  163.0640 C.3     1  UNL1        0.0242
      7 C         138.0747  142.6473  161.2218 C.2     1  UNL1        0.0513
      8 O         138.2773  142.8536  159.7500 O.co2   1  UNL1       -0.5491
      9 O         137.7958  143.8218  162.1123 O.co2   1  UNL1       -0.5491
     10 C         138.1633  140.9344  160.3406 C.3     1  UNL1        0.0949
     11 C         139.2845  139.7441  158.3216 C.2     1  UNL1        0.2461
     12 O         138.0580  139.9918  157.4944 O.2     1  UNL1       -0.2701
     13 N         139.3372  140.2154  159.7447 N.am    1  UNL1       -0.3005
     14 H         140.1423  140.0529  160.2876 H       1  UNL1        0.1498
     15 C         141.4368  136.9798  156.4572 C.ar    1  UNL1        0.1419
     16 C         142.8062  137.5873  156.5339 C.ar    1  UNL1        0.0738
     17 C         143.0016  138.9137  157.2064 C.ar    1  UNL1        0.1419
     18 C         141.8277  139.6327  157.8023 C.ar    1  UNL1        0.0416
     19 C         140.4584  139.0252  157.7257 C.ar    1  UNL1        0.0594
     20 C         140.2629  137.6987  157.0531 C.ar    1  UNL1        0.0416
     21 C         142.2618  134.5674  155.9571 C.3     1  UNL1        0.2525
     22 O         141.2414  135.6533  155.7846 O.3     1  UNL1       -0.4713
     23 O         144.3710  139.5213  157.2831 O.3     1  UNL1       -0.4713
     24 C         144.5262  141.0088  157.3979 C.3     1  UNL1        0.2525
     25 C         138.2761  139.2140  165.8058 C.3     1  UNL1        0.0991
     26 C         139.3986  139.4977  166.7594 C.ar    1  UNL1       -0.0062
     27 C         140.8209  139.4121  166.2905 C.ar    1  UNL1       -0.0030
     28 C         141.9435  139.6959  167.2441 C.ar    1  UNL1        0.0036
     29 C         141.6438  140.0652  168.6667 C.ar    1  UNL1        0.0714
     30 C         140.2215  140.1508  169.1356 C.ar    1  UNL1        0.0036
     31 C         139.0990  139.8671  168.1820 C.ar    1  UNL1       -0.0030
     32 C         142.7663  140.3489  169.6203 C.3     1  UNL1        0.4186
     33 F         143.8887  140.6326  170.5740 F       1  UNL1       -0.1659
     34 F         142.4128  139.1186  170.4023 F       1  UNL1       -0.1659
     35 F         143.1197  141.5791  168.8384 F       1  UNL1       -0.1659
@<TRIPOS>UNITY_ATOM_ATTR
8 1
charge -1
@<TRIPOS>BOND
     1    21    22    1
     2    22    15    1
     3    15    16   ar
     4    16    17   ar
     5    17    23    1
     6    23    24    1
     7    17    18   ar
     8    18    19   ar
     9    19    11    1
    10    11    12    2
    11    11    13   am
    12    13    10    1
    13    10     1    1
    14     1     7    1
    15     7     8   ar
    16     7     9   ar
    17     1     2    1
    18     2     3    1
    19     3     4    1
    20     4    25    1
    21    25    26    1
    22    26    27   ar
    23    27    28   ar
    24    28    29   ar
    25    29    32    1
    26    32    33    1
    27    32    34    1
    28    32    35    1
    29    29    30   ar
    30    30    31   ar
    31     4     5    1
    32     5     6    1
    33    19    20   ar
    34    20    15   ar
    35     6     1    1
    36    31    26   ar
    37    13    14    1
@<TRIPOS>MOLECULE
*****
 35 37 0 0 0
SMALL
GASTEIGER

@<TRIPOS>ATOM
      1 C         143.0104  139.0193  162.3288 C.3     1  UNL1        0.0528
      2 C         143.9624  139.8896  163.0944 C.3     1  UNL1        0.0242
      3 C         144.0349  139.7879  164.5892 C.3     1  UNL1        0.0728
      4 N         143.1553  138.8159  165.3183 N.3     1  UNL1       -0.2689
      5 C         142.2033  137.9456  164.5527 C.3     1  UNL1        0.0728
      6 C         142.1309  138.0473  163.0579 C.3     1  UNL1        0.0242
      7 C         142.2752  138.4135  161.1701 C.2     1  UNL1        0.0513
      8 O         140.7877  138.5721  161.0601 O.co2   1  UNL1       -0.5491
      9 O         143.0276  137.6491  160.1215 O.co2   1  UNL1       -0.5491
     10 C         143.6346  139.7809  161.1973 C.3     1  UNL1        0.0949
     11 C         143.4764  142.2270  160.3361 C.2     1  UNL1        0.2461
     12 O         144.8596  142.4973  160.8493 O.2     1  UNL1       -0.2701
     13 N         142.8638  140.8688  160.5101 N.am    1  UNL1       -0.3005
     14 H         141.9559  140.6915  160.1732 H       1  UNL1        0.1498
     15 C         142.2382  144.7502  157.5342 C.ar    1  UNL1        0.1419
     16 C         141.1639  145.4907  158.2743 C.ar    1  UNL1        0.0738
     17 C         140.8605  145.1433  159.7016 C.ar    1  UNL1        0.1419
     18 C         141.6314  144.0554  160.3889 C.ar    1  UNL1        0.0416
     19 C         142.7055  143.3149  159.6488 C.ar    1  UNL1        0.0594
     20 C         143.0090  143.6623  158.2214 C.ar    1  UNL1        0.0416
     21 C         141.6971  144.5349  155.0023 C.3     1  UNL1        0.2525
     22 O         142.5415  145.0976  156.1069 O.3     1  UNL1       -0.4713
     23 O         139.7863  145.8839  160.4418 O.3     1  UNL1       -0.4713
     24 C         139.8499  146.0023  161.9357 C.3     1  UNL1        0.2525
     25 C         143.2277  138.7142  166.8131 C.3     1  UNL1        0.0991
     26 C         142.4123  139.6383  167.6681 C.ar    1  UNL1       -0.0062
     27 C         142.3646  139.4388  169.1541 C.ar    1  UNL1       -0.0030
     28 C         141.5492  140.3629  170.0092 C.ar    1  UNL1        0.0036
     29 C         140.7815  141.4866  169.3783 C.ar    1  UNL1        0.0714
     30 C         140.8292  141.6861  167.8924 C.ar    1  UNL1        0.0036
     31 C         141.6446  140.7620  167.0374 C.ar    1  UNL1       -0.0030
     32 C         139.9661  142.4107  170.2333 C.3     1  UNL1        0.4186
     33 F         139.1508  143.3349  171.0883 F       1  UNL1       -0.1659
     34 F         141.0874  143.4071  170.2256 F       1  UNL1       -0.1659
     35 F         138.8449  141.4144  170.2411 F       1  UNL1       -0.1659
@<TRIPOS>UNITY_ATOM_ATTR
8 1
charge -1
@<TRIPOS>BOND
     1    21    22    1
     2    22    15    1
     3    15    16   ar
     4    16    17   ar
     5    17    23    1
     6    23    24    1
     7    17    18   ar
     8    18    19   ar
     9    19    11    1
    10    11    12    2
    11    11    13   am
    12    13    10    1
    13    10     1    1
    14     1     7    1
    15     7     8   ar
    16     7     9   ar
    17     1     2    1
    18     2     3    1
    19     3     4    1
    20     4    25    1
    21    25    26    1
    22    26    27   ar
    23    27    28   ar
    24    28    29   ar
    25    29    32    1
    26    32    33    1
    27    32    34    1
    28    32    35    1
    29    29    30   ar
    30    30    31   ar
    31     4     5    1
    32     5     6    1
    33    19    20   ar
    34    20    15   ar
    35     6     1    1
    36    31    26   ar
    37    13    14    1
@<TRIPOS>MOLECULE
*****
 35 37 0 0 0
SMALL
GASTEIGER

@<TRIPOS>ATOM
      1 C         138.1865  139.6173  162.7695 C.3     1  UNL1        0.0528
      2 C         137.9871  140.8184  163.6456 C.3     1  UNL1        0.0242
      3 C         138.1825  140.7058  165.1285 C.3     1  UNL1        0.0728
      4 N         138.5774  139.3920  165.7354 N.3     1  UNL1       -0.2689
      5 C         138.7767  138.1909  164.8593 C.3     1  UNL1        0.0728
      6 C         138.5813  138.3035  163.3764 C.3     1  UNL1        0.0242
      7 C         138.2573  138.7702  161.5336 C.2     1  UNL1        0.0513
      8 O         139.4896  137.9650  161.2458 O.co2   1  UNL1       -0.5491
      9 O         137.0957  138.7284  160.5855 O.co2   1  UNL1       -0.5491
     10 C         137.8162  140.6368  161.7335 C.3     1  UNL1        0.0949
     11 C         139.0367  142.6526  160.6393 C.2     1  UNL1        0.2461
     12 O         138.1661  143.5989  161.4116 O.2     1  UNL1       -0.2701
     13 N         138.8617  141.1715  160.8002 N.am    1  UNL1       -0.3005
     14 H         139.4331  140.5504  160.2933 H       1  UNL1        0.1498
     15 C         140.7193  144.4727  157.5399 C.ar    1  UNL1        0.1419
     16 C         142.1732  144.2567  157.8394 C.ar    1  UNL1        0.0738
     17 C         142.5815  143.5061  159.0722 C.ar    1  UNL1        0.1419
     18 C         141.5360  142.9713  160.0055 C.ar    1  UNL1        0.0416
     19 C         140.0822  143.1873  159.7060 C.ar    1  UNL1        0.0594
     20 C         139.6738  143.9380  158.4732 C.ar    1  UNL1        0.0416
     21 C         139.7786  146.6210  156.4220 C.3     1  UNL1        0.2525
     22 O         140.3110  145.2234  156.3072 O.3     1  UNL1       -0.4713
     23 O         144.0354  143.2900  159.3717 O.3     1  UNL1       -0.4713
     24 C         144.4462  142.6144  160.6463 C.3     1  UNL1        0.2525
     25 C         138.7728  139.2795  167.2183 C.3     1  UNL1        0.0991
     26 C         139.8465  140.0780  167.8960 C.ar    1  UNL1       -0.0062
     27 C         141.1790  140.2594  167.2314 C.ar    1  UNL1       -0.0030
     28 C         142.2528  141.0579  167.9091 C.ar    1  UNL1        0.0036
     29 C         141.9941  141.6752  169.2515 C.ar    1  UNL1        0.0714
     30 C         140.6617  141.4939  169.9162 C.ar    1  UNL1        0.0036
     31 C         139.5879  140.6953  169.2384 C.ar    1  UNL1       -0.0030
     32 C         143.0678  142.4738  169.9292 C.3     1  UNL1        0.4186
     33 F         144.1415  143.2723  170.6071 F       1  UNL1       -0.1659
     34 F         142.2941  142.4240  171.2134 F       1  UNL1       -0.1659
     35 F         143.8415  142.5235  168.6452 F       1  UNL1       -0.1659
@<TRIPOS>UNITY_ATOM_ATTR
8 1
charge -1
@<TRIPOS>BOND
     1    21    22    1
     2    22    15    1
     3    15    16   ar
     4    16    17   ar
     5    17    23    1
     6    23    24    1
     7    17    18   ar
     8    18    19   ar
     9    19    11    1
    10    11    12    2
    11    11    13   am
    12    13    10    1
    13    10     1    1
    14     1     7    1
    15     7     8   ar
    16     7     9   ar
    17     1     2    1
    18     2     3    1
    19     3     4    1
    20     4    25    1
    21    25    26    1
    22    26    27   ar
    23    27    28   ar
    24    28    29   ar
    25    29    32    1
    26    32    33    1
    27    32    34    1
    28    32    35    1
    29    29    30   ar
    30    30    31   ar
    31     4     5    1
    32     5     6    1
    33    19    20   ar
    34    20    15   ar
    35     6     1    1
    36    31    26   ar
    37    13    14    1
