@<TRIPOS>MOLECULE
*****
 33 37 0 0 0
SMALL
GASTEIGER

@<TRIPOS>ATOM
      1 N         142.7579  138.4536  159.6838 N.pl3   1  UNL1       -0.3063
      2 C         143.8770  138.5479  160.6782 C.3     1  UNL1        0.0909
      3 C         143.2933  138.3817  162.0500 C.3     1  UNL1        0.0231
      4 C         141.8134  138.1848  161.9034 C.3     1  UNL1        0.0226
      5 C         140.3557  138.0004  161.6018 C.3     1  UNL1        0.0191
      6 C         139.3784  137.7951  162.7211 C.3     1  UNL1        0.0722
      7 N         139.8589  137.7741  164.1419 N.3     1  UNL1       -0.2704
      8 C         141.3166  137.9584  164.4434 C.3     1  UNL1        0.0722
      9 C         142.2939  138.1637  163.3242 C.3     1  UNL1        0.0191
     10 C         141.4826  138.2292  160.4410 C.3     1  UNL1        0.0909
     11 C         143.1566  138.7857  155.2138 C.ar    1  UNL1        0.1068
     12 C         143.3422  139.9992  156.0756 C.ar    1  UNL1        0.0268
     13 C         143.2093  139.8885  157.5656 C.ar    1  UNL1        0.0182
     14 C         142.8908  138.5643  158.1938 C.ar    1  UNL1        0.0673
     15 C         142.7052  137.3506  157.3321 C.ar    1  UNL1        0.1138
     16 N         142.8381  137.4613  155.8421 N.ar    1  UNL1       -0.2363
     17 C         142.3816  138.1057  152.8291 C.3     1  UNL1        0.0757
     18 S         143.2895  138.8964  153.7239 S.3     1  UNL1       -0.0940
     19 C         138.8815  137.5688  165.2611 C.3     1  UNL1        0.1063
     20 C         138.1684  138.7450  165.8594 C.3     1  UNL1        0.1483
     21 O         137.3227  138.5653  167.0851 O.3     1  UNL1       -0.3786
     22 H         136.9361  139.4179  167.3390 H       1  UNL1        0.2108
     23 C         138.3010  140.1010  165.2319 C.ar    1  UNL1        0.0015
     24 C         137.4976  140.4451  164.0128 C.ar    1  UNL1       -0.0020
     25 C         137.6302  141.8010  163.3853 C.ar    1  UNL1        0.0060
     26 C         138.5662  142.8129  163.9769 C.ar    1  UNL1        0.0748
     27 C         139.3696  142.4688  165.1959 C.ar    1  UNL1        0.0233
     28 C         139.2370  141.1129  165.8234 C.ar    1  UNL1       -0.0238
     29 C         140.0405  140.7688  167.0425 C.3     1  UNL1        0.0306
     30 C         140.2046  143.6627  165.5529 C.3     1  UNL1        0.2352
     31 O         139.9173  144.7446  164.5545 O.3     1  UNL1       -0.4404
     32 C         138.9047  144.2194  163.5805 C.2     1  UNL1        0.3413
     33 O         138.3312  144.9691  162.4146 O.2     1  UNL1       -0.2449
@<TRIPOS>BOND
     1    17    18    1
     2    18    11    1
     3    11    12   ar
     4    12    13   ar
     5    13    14   ar
     6    14     1    1
     7     1     2    1
     8     2     3    1
     9     3     4    1
    10     4     5    1
    11     5     6    1
    12     6     7    1
    13     7    19    1
    14    19    20    1
    15    20    21    1
    16    20    23    1
    17    23    24   ar
    18    24    25   ar
    19    25    26   ar
    20    26    27   ar
    21    27    28   ar
    22    28    29    1
    23    27    30    1
    24    30    31    1
    25    31    32    1
    26    32    33    2
    27     7     8    1
    28     8     9    1
    29     4    10    1
    30    14    15   ar
    31    15    16   ar
    32    16    11   ar
    33    10     1    1
    34     9     4    1
    35    28    23   ar
    36    32    26    1
    37    21    22    1
@<TRIPOS>MOLECULE
*****
 33 37 0 0 0
SMALL
GASTEIGER

@<TRIPOS>ATOM
      1 N         138.4413  140.4082  159.4492 N.pl3   1  UNL1       -0.3063
      2 C         139.0381  139.0356  159.3492 C.3     1  UNL1        0.0909
      3 C         139.1613  138.4815  160.7377 C.3     1  UNL1        0.0231
      4 C         138.6407  139.5116  161.6958 C.3     1  UNL1        0.0226
      5 C         138.0918  140.6319  162.5286 C.3     1  UNL1        0.0191
      6 C         138.0275  140.4952  164.0209 C.3     1  UNL1        0.0722
      7 N         138.5122  139.2382  164.6805 N.3     1  UNL1       -0.2704
      8 C         139.0612  138.1179  163.8478 C.3     1  UNL1        0.0722
      9 C         139.1254  138.2546  162.3554 C.3     1  UNL1        0.0191
     10 C         138.1957  140.7024  160.8995 C.3     1  UNL1        0.0909
     11 C         137.5449  143.1601  156.0035 C.ar    1  UNL1        0.1068
     12 C         136.7830  141.8772  156.1566 C.ar    1  UNL1        0.0268
     13 C         137.0818  140.9599  157.3051 C.ar    1  UNL1        0.0182
     14 C         138.1425  141.3255  158.3006 C.ar    1  UNL1        0.0673
     15 C         138.9045  142.6084  158.1476 C.ar    1  UNL1        0.1138
     16 N         138.6057  143.5257  156.9990 N.ar    1  UNL1       -0.2363
     17 C         137.7851  145.4773  154.8532 C.3     1  UNL1        0.0757
     18 S         137.2462  144.0774  154.8549 S.3     1  UNL1       -0.0940
     19 C         138.4479  139.1016  166.1730 C.3     1  UNL1        0.1063
     20 C         139.5668  139.6264  167.0230 C.3     1  UNL1        0.1483
     21 O         139.4032  139.7074  168.5119 O.3     1  UNL1       -0.3786
     22 H         140.2132  140.0658  168.9072 H       1  UNL1        0.2108
     23 C         140.8495  140.0702  166.3843 C.ar    1  UNL1        0.0015
     24 C         141.9300  139.0700  166.0979 C.ar    1  UNL1       -0.0020
     25 C         143.2126  139.5137  165.4592 C.ar    1  UNL1        0.0060
     26 C         143.4146  140.9577  165.1068 C.ar    1  UNL1        0.0748
     27 C         142.3341  141.9579  165.3931 C.ar    1  UNL1        0.0233
     28 C         141.0515  141.5141  166.0319 C.ar    1  UNL1       -0.0238
     29 C         139.9709  142.5143  166.3182 C.3     1  UNL1        0.0306
     30 C         142.8154  143.3035  164.9374 C.3     1  UNL1        0.2352
     31 O         144.1934  143.1349  164.3694 O.3     1  UNL1       -0.4404
     32 C         144.5637  141.6851  164.4741 C.2     1  UNL1        0.3413
     33 O         145.8563  141.0707  164.0249 O.2     1  UNL1       -0.2449
@<TRIPOS>BOND
     1    17    18    1
     2    18    11    1
     3    11    12   ar
     4    12    13   ar
     5    13    14   ar
     6    14     1    1
     7     1     2    1
     8     2     3    1
     9     3     4    1
    10     4     5    1
    11     5     6    1
    12     6     7    1
    13     7    19    1
    14    19    20    1
    15    20    21    1
    16    20    23    1
    17    23    24   ar
    18    24    25   ar
    19    25    26   ar
    20    26    27   ar
    21    27    28   ar
    22    28    29    1
    23    27    30    1
    24    30    31    1
    25    31    32    1
    26    32    33    2
    27     7     8    1
    28     8     9    1
    29     4    10    1
    30    14    15   ar
    31    15    16   ar
    32    16    11   ar
    33    10     1    1
    34     9     4    1
    35    28    23   ar
    36    32    26    1
    37    21    22    1
@<TRIPOS>MOLECULE
*****
 33 37 0 0 0
SMALL
GASTEIGER

@<TRIPOS>ATOM
      1 N         142.9641  138.3398  159.4030 N.pl3   1  UNL1       -0.3063
      2 C         142.9808  137.3511  160.5310 C.3     1  UNL1        0.0909
      3 C         143.5108  138.0470  161.7495 C.3     1  UNL1        0.0231
      4 C         143.8216  139.4658  161.3747 C.3     1  UNL1        0.0226
      5 C         144.0830  140.8485  160.8553 C.3     1  UNL1        0.0191
      6 C         144.6348  141.9014  161.7701 C.3     1  UNL1        0.0722
      7 N         144.9252  141.5716  163.2043 N.3     1  UNL1       -0.2704
      8 C         144.6638  140.1889  163.7237 C.3     1  UNL1        0.0722
      9 C         144.1120  139.1360  162.8089 C.3     1  UNL1        0.0191
     10 C         143.4838  139.6468  159.9245 C.3     1  UNL1        0.0909
     11 C         141.5954  137.5277  155.1939 C.ar    1  UNL1        0.1068
     12 C         142.2498  136.4399  155.9928 C.ar    1  UNL1        0.0268
     13 C         142.7060  136.7106  157.3958 C.ar    1  UNL1        0.0182
     14 C         142.5079  138.0691  158.0000 C.ar    1  UNL1        0.0673
     15 C         141.8535  139.1570  157.2011 C.ar    1  UNL1        0.1138
     16 N         141.3973  138.8863  155.7980 N.ar    1  UNL1       -0.2363
     17 C         141.8624  136.2484  152.9484 C.3     1  UNL1        0.0757
     18 S         141.1392  137.2570  153.7908 S.3     1  UNL1       -0.0940
     19 C         145.4770  142.6246  164.1192 C.3     1  UNL1        0.1063
     20 C         144.5512  143.4234  164.9879 C.3     1  UNL1        0.1483
     21 O         145.0500  144.0094  166.2755 O.3     1  UNL1       -0.3786
     22 H         144.3301  144.4918  166.7114 H       1  UNL1        0.2108
     23 C         143.1266  143.6362  164.5692 C.ar    1  UNL1        0.0015
     24 C         142.7955  144.6713  163.5353 C.ar    1  UNL1       -0.0020
     25 C         141.3710  144.8842  163.1166 C.ar    1  UNL1        0.0060
     26 C         140.2776  144.0619  163.7316 C.ar    1  UNL1        0.0748
     27 C         140.6088  143.0267  164.7654 C.ar    1  UNL1        0.0233
     28 C         142.0333  142.8139  165.1842 C.ar    1  UNL1       -0.0238
     29 C         142.3644  141.7787  166.2180 C.3     1  UNL1        0.0306
     30 C         139.3285  142.3722  165.1926 C.3     1  UNL1        0.2352
     31 O         138.2061  143.0028  164.4229 O.3     1  UNL1       -0.4404
     32 C         138.7927  144.0470  163.5199 C.2     1  UNL1        0.3413
     33 O         138.0285  144.9228  162.5717 O.2     1  UNL1       -0.2449
@<TRIPOS>BOND
     1    17    18    1
     2    18    11    1
     3    11    12   ar
     4    12    13   ar
     5    13    14   ar
     6    14     1    1
     7     1     2    1
     8     2     3    1
     9     3     4    1
    10     4     5    1
    11     5     6    1
    12     6     7    1
    13     7    19    1
    14    19    20    1
    15    20    21    1
    16    20    23    1
    17    23    24   ar
    18    24    25   ar
    19    25    26   ar
    20    26    27   ar
    21    27    28   ar
    22    28    29    1
    23    27    30    1
    24    30    31    1
    25    31    32    1
    26    32    33    2
    27     7     8    1
    28     8     9    1
    29     4    10    1
    30    14    15   ar
    31    15    16   ar
    32    16    11   ar
    33    10     1    1
    34     9     4    1
    35    28    23   ar
    36    32    26    1
    37    21    22    1
@<TRIPOS>MOLECULE
*****
 33 37 0 0 0
SMALL
GASTEIGER

@<TRIPOS>ATOM
      1 N         139.7401  138.7638  159.1455 N.pl3   1  UNL1       -0.3063
      2 C         138.7986  139.9263  159.0350 C.3     1  UNL1        0.0909
      3 C         138.3014  140.2528  160.4120 C.3     1  UNL1        0.0231
      4 C         138.9358  139.2920  161.3737 C.3     1  UNL1        0.0226
      5 C         139.6428  138.2681  162.2114 C.3     1  UNL1        0.0191
      6 C         139.4260  138.2337  163.6952 C.3     1  UNL1        0.0722
      7 N         138.5022  139.2232  164.3414 N.3     1  UNL1       -0.2704
      8 C         137.7952  140.2471  163.5037 C.3     1  UNL1        0.0722
      9 C         138.0120  140.2815  162.0199 C.3     1  UNL1        0.0191
     10 C         139.8249  138.3719  160.5910 C.3     1  UNL1        0.0909
     11 C         141.9266  136.7977  155.7391 C.ar    1  UNL1        0.1068
     12 C         140.4321  136.9202  155.7000 C.ar    1  UNL1        0.0268
     13 C         139.7033  137.5756  156.8355 C.ar    1  UNL1        0.0182
     14 C         140.4689  138.1085  158.0101 C.ar    1  UNL1        0.0673
     15 C         141.9634  137.9860  158.0492 C.ar    1  UNL1        0.1138
     16 N         142.6922  137.3306  156.9138 N.ar    1  UNL1       -0.2363
     17 C         142.6284  134.6497  154.4571 C.3     1  UNL1        0.0757
     18 S         142.6554  136.1423  154.6037 S.3     1  UNL1       -0.0940
     19 C         138.2854  139.1887  165.8253 C.3     1  UNL1        0.1063
     20 C         139.2405  139.8972  166.7394 C.3     1  UNL1        0.1483
     21 O         139.2201  139.6125  168.2120 O.3     1  UNL1       -0.3786
     22 H         139.8953  140.1502  168.6547 H       1  UNL1        0.2108
     23 C         140.2161  140.8904  166.1810 C.ar    1  UNL1        0.0015
     24 C         139.7827  142.3028  165.9212 C.ar    1  UNL1       -0.0020
     25 C         140.7582  143.2960  165.3628 C.ar    1  UNL1        0.0060
     26 C         142.1671  142.8769  165.0642 C.ar    1  UNL1        0.0748
     27 C         142.6005  141.4645  165.3239 C.ar    1  UNL1        0.0233
     28 C         141.6250  140.4713  165.8823 C.ar    1  UNL1       -0.0238
     29 C         142.0584  139.0590  166.1421 C.3     1  UNL1        0.0306
     30 C         144.0438  141.3434  164.9336 C.3     1  UNL1        0.2352
     31 O         144.5024  142.6808  164.4326 O.3     1  UNL1       -0.4404
     32 C         143.3425  143.6285  164.5133 C.2     1  UNL1        0.3413
     33 O         143.3557  145.0742  164.1134 O.2     1  UNL1       -0.2449
@<TRIPOS>BOND
     1    17    18    1
     2    18    11    1
     3    11    12   ar
     4    12    13   ar
     5    13    14   ar
     6    14     1    1
     7     1     2    1
     8     2     3    1
     9     3     4    1
    10     4     5    1
    11     5     6    1
    12     6     7    1
    13     7    19    1
    14    19    20    1
    15    20    21    1
    16    20    23    1
    17    23    24   ar
    18    24    25   ar
    19    25    26   ar
    20    26    27   ar
    21    27    28   ar
    22    28    29    1
    23    27    30    1
    24    30    31    1
    25    31    32    1
    26    32    33    2
    27     7     8    1
    28     8     9    1
    29     4    10    1
    30    14    15   ar
    31    15    16   ar
    32    16    11   ar
    33    10     1    1
    34     9     4    1
    35    28    23   ar
    36    32    26    1
    37    21    22    1
@<TRIPOS>MOLECULE
*****
 33 37 0 0 0
SMALL
GASTEIGER

@<TRIPOS>ATOM
      1 N         142.7631  137.7366  158.2486 N.pl3   1  UNL1       -0.3063
      2 C         143.2212  139.1089  157.8525 C.3     1  UNL1        0.0909
      3 C         143.4256  139.9088  159.1049 C.3     1  UNL1        0.0231
      4 C         143.0938  139.0308  160.2751 C.3     1  UNL1        0.0226
      5 C         142.7301  138.0399  161.3408 C.3     1  UNL1        0.0191
      6 C         142.7961  138.4350  162.7862 C.3     1  UNL1        0.0722
      7 N         143.2259  139.8210  163.1660 N.3     1  UNL1       -0.2704
      8 C         143.5896  140.8119  162.1003 C.3     1  UNL1        0.0722
      9 C         143.5236  140.4168  160.6548 C.3     1  UNL1        0.0191
     10 C         142.6843  137.6883  159.7458 C.3     1  UNL1        0.0909
     11 C         141.7949  134.3578  155.4386 C.ar    1  UNL1        0.1068
     12 C         141.0495  135.6553  155.3363 C.ar    1  UNL1        0.0268
     13 C         141.3722  136.7816  156.2729 C.ar    1  UNL1        0.0182
     14 C         142.4403  136.6103  157.3119 C.ar    1  UNL1        0.0673
     15 C         143.1858  135.3127  157.4143 C.ar    1  UNL1        0.1138
     16 N         142.8631  134.1864  156.4777 N.ar    1  UNL1       -0.2363
     17 C         141.6308  131.8104  154.9550 C.3     1  UNL1        0.0757
     18 S         141.4722  133.2315  154.5020 S.3     1  UNL1       -0.0940
     19 C         143.2920  140.2161  164.6116 C.3     1  UNL1        0.1063
     20 C         142.3861  141.2897  165.1378 C.3     1  UNL1        0.1483
     21 O         142.3440  142.6307  164.4672 O.3     1  UNL1       -0.3786
     22 H         141.7120  143.2035  164.9291 H       1  UNL1        0.2108
     23 C         141.5225  141.0222  166.3348 C.ar    1  UNL1        0.0015
     24 C         140.2616  140.2233  166.1863 C.ar    1  UNL1       -0.0020
     25 C         139.3980  139.9558  167.3832 C.ar    1  UNL1        0.0060
     26 C         139.7951  140.4872  168.7284 C.ar    1  UNL1        0.0748
     27 C         141.0560  141.2861  168.8769 C.ar    1  UNL1        0.0233
     28 C         141.9197  141.5536  167.6800 C.ar    1  UNL1       -0.0238
     29 C         143.1805  142.3525  167.8285 C.3     1  UNL1        0.0306
     30 C         141.1895  141.6779  170.3187 C.3     1  UNL1        0.2352
     31 O         140.0111  141.1211  171.0613 O.3     1  UNL1       -0.4404
     32 C         139.1494  140.3853  170.0785 C.2     1  UNL1        0.3413
     33 O         137.8670  139.6726  170.3909 O.2     1  UNL1       -0.2449
@<TRIPOS>BOND
     1    17    18    1
     2    18    11    1
     3    11    12   ar
     4    12    13   ar
     5    13    14   ar
     6    14     1    1
     7     1     2    1
     8     2     3    1
     9     3     4    1
    10     4     5    1
    11     5     6    1
    12     6     7    1
    13     7    19    1
    14    19    20    1
    15    20    21    1
    16    20    23    1
    17    23    24   ar
    18    24    25   ar
    19    25    26   ar
    20    26    27   ar
    21    27    28   ar
    22    28    29    1
    23    27    30    1
    24    30    31    1
    25    31    32    1
    26    32    33    2
    27     7     8    1
    28     8     9    1
    29     4    10    1
    30    14    15   ar
    31    15    16   ar
    32    16    11   ar
    33    10     1    1
    34     9     4    1
    35    28    23   ar
    36    32    26    1
    37    21    22    1
@<TRIPOS>MOLECULE
*****
 33 37 0 0 0
SMALL
GASTEIGER

@<TRIPOS>ATOM
      1 N         140.1766  144.5624  160.0878 N.pl3   1  UNL1       -0.3063
      2 C         139.9871  145.6263  161.1281 C.3     1  UNL1        0.0909
      3 C         139.5413  144.9605  162.3962 C.3     1  UNL1        0.0231
      4 C         139.4552  143.4851  162.1396 C.3     1  UNL1        0.0226
      5 C         139.4156  142.0409  161.7364 C.3     1  UNL1        0.0191
      6 C         139.0084  140.9952  162.7317 C.3     1  UNL1        0.0722
      7 N         138.6408  141.3937  164.1302 N.3     1  UNL1       -0.2704
      8 C         138.6804  142.8379  164.5335 C.3     1  UNL1        0.0722
      9 C         139.0876  143.8836  163.5382 C.3     1  UNL1        0.0191
     10 C         139.8478  143.2390  160.7130 C.3     1  UNL1        0.0909
     11 C         141.4989  145.2243  155.8378 C.ar    1  UNL1        0.1068
     12 C         141.9447  143.9994  156.5798 C.ar    1  UNL1        0.0268
     13 C         141.5039  143.7788  157.9965 C.ar    1  UNL1        0.0182
     14 C         140.6173  144.7830  158.6711 C.ar    1  UNL1        0.0673
     15 C         140.1715  146.0080  157.9291 C.ar    1  UNL1        0.1138
     16 N         140.6122  146.2287  156.5124 N.ar    1  UNL1       -0.2363
     17 C         141.0042  146.0791  153.4347 C.3     1  UNL1        0.0757
     18 S         141.9396  145.4450  154.4211 S.3     1  UNL1       -0.0940
     19 C         138.2336  140.3479  165.1256 C.3     1  UNL1        0.1063
     20 C         139.2796  139.5963  165.8941 C.3     1  UNL1        0.1483
     21 O         139.6787  138.2156  165.4645 O.3     1  UNL1       -0.3786
     22 H         140.3607  137.8749  166.0642 H       1  UNL1        0.2108
     23 C         139.9267  140.2252  167.0924 C.ar    1  UNL1        0.0015
     24 C         139.2802  140.1096  168.4410 C.ar    1  UNL1       -0.0020
     25 C         139.9272  140.7385  169.6393 C.ar    1  UNL1        0.0060
     26 C         141.2207  141.4831  169.4889 C.ar    1  UNL1        0.0748
     27 C         141.8671  141.5987  168.1403 C.ar    1  UNL1        0.0233
     28 C         141.2201  140.9698  166.9420 C.ar    1  UNL1       -0.0238
     29 C         141.8666  141.0854  165.5934 C.3     1  UNL1        0.0306
     30 C         143.1324  142.3886  168.2990 C.3     1  UNL1        0.2352
     31 O         143.2679  142.7612  169.7456 O.3     1  UNL1       -0.4404
     32 C         142.0864  142.2015  170.4810 C.2     1  UNL1        0.3413
     33 O         141.8178  142.3366  171.9506 O.2     1  UNL1       -0.2449
@<TRIPOS>BOND
     1    17    18    1
     2    18    11    1
     3    11    12   ar
     4    12    13   ar
     5    13    14   ar
     6    14     1    1
     7     1     2    1
     8     2     3    1
     9     3     4    1
    10     4     5    1
    11     5     6    1
    12     6     7    1
    13     7    19    1
    14    19    20    1
    15    20    21    1
    16    20    23    1
    17    23    24   ar
    18    24    25   ar
    19    25    26   ar
    20    26    27   ar
    21    27    28   ar
    22    28    29    1
    23    27    30    1
    24    30    31    1
    25    31    32    1
    26    32    33    2
    27     7     8    1
    28     8     9    1
    29     4    10    1
    30    14    15   ar
    31    15    16   ar
    32    16    11   ar
    33    10     1    1
    34     9     4    1
    35    28    23   ar
    36    32    26    1
    37    21    22    1
@<TRIPOS>MOLECULE
*****
 33 37 0 0 0
SMALL
GASTEIGER

@<TRIPOS>ATOM
      1 N         142.7824  137.6824  158.0836 N.pl3   1  UNL1       -0.3063
      2 C         143.2506  139.0483  157.6770 C.3     1  UNL1        0.0909
      3 C         143.4405  139.8629  158.9221 C.3     1  UNL1        0.0231
      4 C         143.0897  139.0006  160.0983 C.3     1  UNL1        0.0226
      5 C         142.7081  138.0241  161.1711 C.3     1  UNL1        0.0191
      6 C         142.7557  138.4369  162.6123 C.3     1  UNL1        0.0722
      7 N         143.1850  139.8262  162.9808 N.3     1  UNL1       -0.2704
      8 C         143.5666  140.8026  161.9081 C.3     1  UNL1        0.0722
      9 C         143.5190  140.3898  160.4668 C.3     1  UNL1        0.0191
     10 C         142.6830  137.6530  159.5801 C.3     1  UNL1        0.0909
     11 C         141.8413  134.2722  155.3026 C.ar    1  UNL1        0.1068
     12 C         143.0047  134.1730  156.2441 C.ar    1  UNL1        0.0268
     13 C         143.3184  135.3098  157.1711 C.ar    1  UNL1        0.0182
     14 C         142.4687  136.5457  157.1566 C.ar    1  UNL1        0.0673
     15 C         141.3052  136.6449  156.2151 C.ar    1  UNL1        0.1138
     16 N         140.9915  135.5082  155.2881 N.ar    1  UNL1       -0.2363
     17 C         142.6198  132.2104  153.9267 C.3     1  UNL1        0.0757
     18 S         141.5276  133.1354  154.3756 S.3     1  UNL1       -0.0940
     19 C         143.2326  140.2390  164.4222 C.3     1  UNL1        0.1063
     20 C         142.2718  141.2680  164.9397 C.3     1  UNL1        0.1483
     21 O         141.5467  142.1661  163.9818 O.3     1  UNL1       -0.3786
     22 H         140.9693  142.7681  164.4769 H       1  UNL1        0.2108
     23 C         142.0361  141.3991  166.4154 C.ar    1  UNL1        0.0015
     24 C         142.9939  142.1849  167.2610 C.ar    1  UNL1       -0.0020
     25 C         142.7582  142.3159  168.7365 C.ar    1  UNL1        0.0060
     26 C         141.5647  141.6612  169.3664 C.ar    1  UNL1        0.0748
     27 C         140.6069  140.8754  168.5208 C.ar    1  UNL1        0.0233
     28 C         140.8426  140.7443  167.0453 C.ar    1  UNL1       -0.0238
     29 C         139.8848  139.9585  166.1996 C.3     1  UNL1        0.0306
     30 C         139.5262  140.3450  169.4156 C.3     1  UNL1        0.2352
     31 O         139.8160  140.8030  170.8142 O.3     1  UNL1       -0.4404
     32 C         141.0759  141.6164  170.7838 C.2     1  UNL1        0.3413
     33 O         141.7319  142.2703  171.9637 O.2     1  UNL1       -0.2449
@<TRIPOS>BOND
     1    17    18    1
     2    18    11    1
     3    11    12   ar
     4    12    13   ar
     5    13    14   ar
     6    14     1    1
     7     1     2    1
     8     2     3    1
     9     3     4    1
    10     4     5    1
    11     5     6    1
    12     6     7    1
    13     7    19    1
    14    19    20    1
    15    20    21    1
    16    20    23    1
    17    23    24   ar
    18    24    25   ar
    19    25    26   ar
    20    26    27   ar
    21    27    28   ar
    22    28    29    1
    23    27    30    1
    24    30    31    1
    25    31    32    1
    26    32    33    2
    27     7     8    1
    28     8     9    1
    29     4    10    1
    30    14    15   ar
    31    15    16   ar
    32    16    11   ar
    33    10     1    1
    34     9     4    1
    35    28    23   ar
    36    32    26    1
    37    21    22    1
@<TRIPOS>MOLECULE
*****
 33 37 0 0 0
SMALL
GASTEIGER

@<TRIPOS>ATOM
      1 N         140.9984  145.3267  159.5006 N.pl3   1  UNL1       -0.3063
      2 C         139.9334  145.9298  160.3679 C.3     1  UNL1        0.0909
      3 C         140.2176  145.5415  161.7886 C.3     1  UNL1        0.0231
      4 C         141.4583  144.6984  161.7995 C.3     1  UNL1        0.0226
      5 C         142.7030  143.8740  161.6544 C.3     1  UNL1        0.0191
      6 C         143.3478  143.2697  162.8665 C.3     1  UNL1        0.0722
      7 N         142.7479  143.4899  164.2236 N.3     1  UNL1       -0.2704
      8 C         141.5032  144.3143  164.3686 C.3     1  UNL1        0.0722
      9 C         140.8584  144.9186  163.1566 C.3     1  UNL1        0.0191
     10 C         141.9408  144.5656  160.3854 C.3     1  UNL1        0.0909
     11 C         141.3113  145.7297  155.0297 C.ar    1  UNL1        0.1068
     12 C         142.3274  144.9237  155.7830 C.ar    1  UNL1        0.0268
     13 C         142.2232  144.7893  157.2733 C.ar    1  UNL1        0.0182
     14 C         141.1027  145.4610  158.0103 C.ar    1  UNL1        0.0673
     15 C         140.0865  146.2672  157.2570 C.ar    1  UNL1        0.1138
     16 N         140.1908  146.4015  155.7667 N.ar    1  UNL1       -0.2363
     17 C         142.7310  145.6350  152.8559 C.3     1  UNL1        0.0757
     18 S         141.4156  145.8641  153.5394 S.3     1  UNL1       -0.0940
     19 C         143.3928  142.8856  165.4356 C.3     1  UNL1        0.1063
     20 C         143.1019  141.4623  165.8090 C.3     1  UNL1        0.1483
     21 O         143.8382  140.3441  165.1327 O.3     1  UNL1       -0.3786
     22 H         143.5329  139.4946  165.4878 H       1  UNL1        0.2108
     23 C         142.0747  141.1571  166.8587 C.ar    1  UNL1        0.0015
     24 C         140.8036  140.4551  166.4825 C.ar    1  UNL1       -0.0020
     25 C         139.7764  140.1499  167.5321 C.ar    1  UNL1        0.0060
     26 C         140.0203  140.5468  168.9579 C.ar    1  UNL1        0.0748
     27 C         141.2914  141.2488  169.3341 C.ar    1  UNL1        0.0233
     28 C         142.3186  141.5540  168.2845 C.ar    1  UNL1       -0.0238
     29 C         143.5896  142.2561  168.6607 C.3     1  UNL1        0.0306
     30 C         141.2540  141.5161  170.8096 C.3     1  UNL1        0.2352
     31 O         139.9599  140.9793  171.3453 O.3     1  UNL1       -0.4404
     32 C         139.1974  140.3802  170.2009 C.2     1  UNL1        0.3413
     33 O         137.8488  139.7289  170.2847 O.2     1  UNL1       -0.2449
@<TRIPOS>BOND
     1    17    18    1
     2    18    11    1
     3    11    12   ar
     4    12    13   ar
     5    13    14   ar
     6    14     1    1
     7     1     2    1
     8     2     3    1
     9     3     4    1
    10     4     5    1
    11     5     6    1
    12     6     7    1
    13     7    19    1
    14    19    20    1
    15    20    21    1
    16    20    23    1
    17    23    24   ar
    18    24    25   ar
    19    25    26   ar
    20    26    27   ar
    21    27    28   ar
    22    28    29    1
    23    27    30    1
    24    30    31    1
    25    31    32    1
    26    32    33    2
    27     7     8    1
    28     8     9    1
    29     4    10    1
    30    14    15   ar
    31    15    16   ar
    32    16    11   ar
    33    10     1    1
    34     9     4    1
    35    28    23   ar
    36    32    26    1
    37    21    22    1
@<TRIPOS>MOLECULE
*****
 33 37 0 0 0
SMALL
GASTEIGER

@<TRIPOS>ATOM
      1 N         142.0075  138.5160  159.1208 N.pl3   1  UNL1       -0.3063
      2 C         143.3462  139.1921  159.0890 C.3     1  UNL1        0.0909
      3 C         143.8424  139.3044  160.5001 C.3     1  UNL1        0.0231
      4 C         142.8105  138.6977  161.4041 C.3     1  UNL1        0.0226
      5 C         141.6947  138.0614  162.1786 C.3     1  UNL1        0.0191
      6 C         141.7816  137.9598  163.6726 C.3     1  UNL1        0.0722
      7 N         142.9843  138.4945  164.3921 N.3     1  UNL1       -0.2704
      8 C         144.1001  139.1308  163.6175 C.3     1  UNL1        0.0722
      9 C         144.0132  139.2324  162.1235 C.3     1  UNL1        0.0191
     10 C         141.6765  138.2104  160.5517 C.3     1  UNL1        0.0909
     11 C         139.4362  137.5705  155.5510 C.ar    1  UNL1        0.1068
     12 C         140.7970  136.9530  155.6797 C.ar    1  UNL1        0.0268
     13 C         141.6541  137.2682  156.8697 C.ar    1  UNL1        0.0182
     14 C         141.1504  138.2008  157.9309 C.ar    1  UNL1        0.0673
     15 C         139.7895  138.8184  157.8022 C.ar    1  UNL1        0.1138
     16 N         138.9324  138.5032  156.6122 N.ar    1  UNL1       -0.2363
     17 C         137.2341  137.9027  154.2129 C.3     1  UNL1        0.0757
     18 S         138.5791  137.2553  154.3610 S.3     1  UNL1       -0.0940
     19 C         143.0712  138.3928  165.8861 C.3     1  UNL1        0.1063
     20 C         142.5676  139.5149  166.7448 C.3     1  UNL1        0.1483
     21 O         142.9741  139.5969  168.1863 O.3     1  UNL1       -0.3786
     22 H         142.5640  140.3757  168.5941 H       1  UNL1        0.2108
     23 C         141.6574  140.5550  166.1618 C.ar    1  UNL1        0.0015
     24 C         140.1739  140.3332  166.1524 C.ar    1  UNL1       -0.0020
     25 C         139.2637  141.3732  165.5695 C.ar    1  UNL1        0.0060
     26 C         139.8370  142.6352  164.9961 C.ar    1  UNL1        0.0748
     27 C         141.3205  142.8570  165.0056 C.ar    1  UNL1        0.0233
     28 C         142.2307  141.8170  165.5884 C.ar    1  UNL1       -0.0238
     29 C         143.7141  142.0388  165.5979 C.3     1  UNL1        0.0306
     30 C         141.5939  144.1896  164.3736 C.3     1  UNL1        0.2352
     31 O         140.2794  144.7914  163.9735 O.3     1  UNL1       -0.4404
     32 C         139.1936  143.8307  164.3582 C.2     1  UNL1        0.3413
     33 O         137.7226  144.0303  164.1429 O.2     1  UNL1       -0.2449
@<TRIPOS>BOND
     1    17    18    1
     2    18    11    1
     3    11    12   ar
     4    12    13   ar
     5    13    14   ar
     6    14     1    1
     7     1     2    1
     8     2     3    1
     9     3     4    1
    10     4     5    1
    11     5     6    1
    12     6     7    1
    13     7    19    1
    14    19    20    1
    15    20    21    1
    16    20    23    1
    17    23    24   ar
    18    24    25   ar
    19    25    26   ar
    20    26    27   ar
    21    27    28   ar
    22    28    29    1
    23    27    30    1
    24    30    31    1
    25    31    32    1
    26    32    33    2
    27     7     8    1
    28     8     9    1
    29     4    10    1
    30    14    15   ar
    31    15    16   ar
    32    16    11   ar
    33    10     1    1
    34     9     4    1
    35    28    23   ar
    36    32    26    1
    37    21    22    1
