@<TRIPOS>MOLECULE
*****
 31 33 0 0 0
SMALL
GASTEIGER

@<TRIPOS>ATOM
      1 C         137.7745  140.6200  163.1629 C.2     1  UNL1        0.2221
      2 O         136.9464  141.7669  162.6637 O.2     1  UNL1       -0.2751
      3 N         137.9396  139.3910  162.3191 N.am    1  UNL1       -0.3042
      4 H         138.4830  138.6383  162.6468 H       1  UNL1        0.1494
      5 C         140.4260  140.9493  168.5351 C.2     1  UNL1        0.4046
      6 O         140.4492  139.7493  169.4349 O.2     1  UNL1       -0.2262
      7 N         139.7631  140.8669  167.1921 N.am    1  UNL1       -0.2460
      8 C         139.7400  142.0670  166.2923 C.3     1  UNL1        0.0972
      9 C         139.0771  141.9847  164.9493 C.3     1  UNL1        0.0307
     10 C         138.4373  140.7023  164.5060 C.3     1  UNL1        0.0799
     11 C         138.4605  139.5024  165.4057 C.3     1  UNL1        0.0307
     12 C         139.1234  139.5847  166.7488 C.3     1  UNL1        0.0972
     13 O         141.0657  142.2316  168.9785 O.3     1  UNL1       -0.4418
     14 C         142.0419  142.2866  170.8610 C.3     1  UNL1        0.0437
     15 C         142.4955  142.2388  169.4320 C.3     1  UNL1        0.1378
     16 C         142.9491  142.1911  168.0031 C.3     1  UNL1        0.0437
     17 C         143.9252  142.2461  169.8856 C.3     1  UNL1        0.0437
     18 C         137.2767  139.3086  160.9760 C.3     1  UNL1        0.0928
     19 C         137.8536  140.0523  159.8081 C.3     1  UNL1        0.0615
     20 C         139.0896  139.5406  159.1295 C.3     1  UNL1        0.1656
     21 N         139.8621  138.4060  159.7345 N.pl3   1  UNL1       -0.2201
     22 H         139.9522  137.5560  159.2459 H       1  UNL1        0.2456
     23 C         140.4975  138.5665  161.0838 C.cat   1  UNL1        0.4200
     24 N         141.1438  139.8131  161.6114 N.2     1  UNL1       -0.0679
     25 C         141.6438  139.5256  162.9961 C.2     1  UNL1        0.1887
     26 C         142.3627  140.3767  164.0004 C.2     1  UNL1        0.0395
     27 C         142.7443  139.8035  165.3330 C.2     1  UNL1       -0.0010
     28 C         142.4070  138.3792  165.6612 C.2     1  UNL1       -0.0181
     29 C         141.6882  137.5281  164.6568 C.3     1  UNL1        0.0932
     30 C         141.3066  138.1013  163.3242 C.2     1  UNL1        0.1744
     31 N         140.5981  137.5086  162.1424 N.2     1  UNL1       -0.0718
@<TRIPOS>BOND
     1    14    15    1
     2    15    16    1
     3    15    17    1
     4    15    13    1
     5    13     5    1
     6     5     6    2
     7     5     7   am
     8     7     8    1
     9     8     9    1
    10     9    10    1
    11    10     1    1
    12     1     2    2
    13     1     3   am
    14     3    18    1
    15    18    19    1
    16    19    20    1
    17    20    21    1
    18    21    23    1
    19    23    24    2
    20    24    25    1
    21    25    26    2
    22    26    27    1
    23    27    28    2
    24    28    29    1
    25    29    30    1
    26    30    31    2
    27    10    11    1
    28    11    12    1
    29    12     7    1
    30    31    23    1
    31    30    25    1
    32     3     4    1
    33    21    22    1
@<TRIPOS>MOLECULE
*****
 31 33 0 0 0
SMALL
GASTEIGER

@<TRIPOS>ATOM
      1 C         139.1209  138.6431  162.2751 C.2     1  UNL1        0.2221
      2 O         137.7939  137.9871  162.0328 O.2     1  UNL1       -0.2751
      3 N         140.0486  138.9058  161.1261 N.am    1  UNL1       -0.3042
      4 H         140.9196  139.3363  161.2851 H       1  UNL1        0.1494
      5 C         140.7182  140.2159  167.8406 C.2     1  UNL1        0.4046
      6 O         139.6986  140.7886  168.7799 O.2     1  UNL1       -0.2262
      7 N         140.3189  139.8227  166.4492 N.am    1  UNL1       -0.2460
      8 C         141.3386  139.2499  165.5099 C.3     1  UNL1        0.0972
      9 C         140.9392  138.8567  164.1185 C.3     1  UNL1        0.0307
     10 C         139.5202  139.0363  163.6665 C.3     1  UNL1        0.0799
     11 C         138.5007  139.6090  164.6058 C.3     1  UNL1        0.0307
     12 C         138.9000  140.0022  165.9972 C.3     1  UNL1        0.0972
     13 O         142.1372  140.0363  168.2927 O.3     1  UNL1       -0.4418
     14 C         142.8435  141.9527  167.7194 C.3     1  UNL1        0.0437
     15 C         142.8494  141.1567  168.9908 C.3     1  UNL1        0.1378
     16 C         142.8553  140.3608  170.2622 C.3     1  UNL1        0.0437
     17 C         143.5616  142.2772  169.6889 C.3     1  UNL1        0.0437
     18 C         139.6493  138.5126  159.7347 C.3     1  UNL1        0.0928
     19 C         138.9563  139.5021  158.8454 C.3     1  UNL1        0.0615
     20 C         139.3488  140.9493  158.8848 C.3     1  UNL1        0.1656
     21 N         138.4473  141.9533  159.5400 N.pl3   1  UNL1       -0.2201
     22 H         137.6693  142.3085  159.0523 H       1  UNL1        0.2456
     23 C         138.7310  142.4161  160.9383 C.cat   1  UNL1        0.4200
     24 N         137.8562  143.3107  161.7655 N.2     1  UNL1       -0.0679
     25 C         138.5239  143.5131  163.0934 C.2     1  UNL1        0.1887
     26 C         138.1259  144.2987  164.3076 C.2     1  UNL1        0.0395
     27 C         139.0153  144.3146  165.5153 C.2     1  UNL1       -0.0010
     28 C         140.3028  143.5450  165.5088 C.2     1  UNL1       -0.0181
     29 C         140.7008  142.7594  164.2946 C.3     1  UNL1        0.0932
     30 C         139.8114  142.7435  163.0869 C.2     1  UNL1        0.1744
     31 N         139.9394  142.0655  161.7550 N.2     1  UNL1       -0.0718
@<TRIPOS>BOND
     1    14    15    1
     2    15    16    1
     3    15    17    1
     4    15    13    1
     5    13     5    1
     6     5     6    2
     7     5     7   am
     8     7     8    1
     9     8     9    1
    10     9    10    1
    11    10     1    1
    12     1     2    2
    13     1     3   am
    14     3    18    1
    15    18    19    1
    16    19    20    1
    17    20    21    1
    18    21    23    1
    19    23    24    2
    20    24    25    1
    21    25    26    2
    22    26    27    1
    23    27    28    2
    24    28    29    1
    25    29    30    1
    26    30    31    2
    27    10    11    1
    28    11    12    1
    29    12     7    1
    30    31    23    1
    31    30    25    1
    32     3     4    1
    33    21    22    1
@<TRIPOS>MOLECULE
*****
 31 33 0 0 0
SMALL
GASTEIGER

@<TRIPOS>ATOM
      1 C         139.2039  143.8950  163.0029 C.2     1  UNL1        0.2221
      2 O         138.0162  143.6133  162.1311 O.2     1  UNL1       -0.2751
      3 N         140.2072  144.9314  162.5916 N.am    1  UNL1       -0.3042
      4 H         140.9868  145.1162  163.1638 H       1  UNL1        0.1494
      5 C         139.9411  140.8762  168.1355 C.2     1  UNL1        0.4046
      6 O         139.5211  139.4392  168.2274 O.2     1  UNL1       -0.2262
      7 N         139.7568  141.6309  166.8524 N.am    1  UNL1       -0.2460
      8 C         140.1769  143.0680  166.7605 C.3     1  UNL1        0.0972
      9 C         139.9926  143.8227  165.4774 C.3     1  UNL1        0.0307
     10 C         139.3882  143.1403  164.2861 C.3     1  UNL1        0.0799
     11 C         138.9682  141.7033  164.3780 C.3     1  UNL1        0.0307
     12 C         139.1525  140.9486  165.6611 C.3     1  UNL1        0.0972
     13 O         140.5455  141.5586  169.3268 O.3     1  UNL1       -0.4418
     14 C         141.7897  143.1694  169.9246 C.3     1  UNL1        0.0437
     15 C         142.0265  141.7889  169.3879 C.3     1  UNL1        0.1378
     16 C         142.2633  140.4084  168.8511 C.3     1  UNL1        0.0437
     17 C         143.5075  142.0192  169.4490 C.3     1  UNL1        0.0437
     18 C         140.0229  145.6861  161.3085 C.3     1  UNL1        0.0928
     19 C         140.1984  144.9848  159.9941 C.3     1  UNL1        0.0615
     20 C         141.5134  145.0554  159.2760 C.3     1  UNL1        0.1656
     21 N         142.5969  144.0690  159.5966 N.pl3   1  UNL1       -0.2201
     22 H         143.1666  143.7125  158.8772 H       1  UNL1        0.2456
     23 C         142.8124  143.6256  161.0133 C.cat   1  UNL1        0.4200
     24 N         142.3748  142.3182  161.6042 N.2     1  UNL1       -0.0679
     25 C         142.7953  142.2964  163.0440 C.2     1  UNL1        0.1887
     26 C         142.6332  141.2655  164.1214 C.2     1  UNL1        0.0395
     27 C         143.1685  141.5285  165.4977 C.2     1  UNL1       -0.0010
     28 C         143.8659  142.8225  165.7965 C.2     1  UNL1       -0.0181
     29 C         144.0280  143.8534  164.7191 C.3     1  UNL1        0.0932
     30 C         143.4927  143.5903  163.3428 C.2     1  UNL1        0.1744
     31 N         143.5033  144.4118  162.0878 N.2     1  UNL1       -0.0718
@<TRIPOS>BOND
     1    14    15    1
     2    15    16    1
     3    15    17    1
     4    15    13    1
     5    13     5    1
     6     5     6    2
     7     5     7   am
     8     7     8    1
     9     8     9    1
    10     9    10    1
    11    10     1    1
    12     1     2    2
    13     1     3   am
    14     3    18    1
    15    18    19    1
    16    19    20    1
    17    20    21    1
    18    21    23    1
    19    23    24    2
    20    24    25    1
    21    25    26    2
    22    26    27    1
    23    27    28    2
    24    28    29    1
    25    29    30    1
    26    30    31    2
    27    10    11    1
    28    11    12    1
    29    12     7    1
    30    31    23    1
    31    30    25    1
    32     3     4    1
    33    21    22    1
@<TRIPOS>MOLECULE
*****
 31 33 0 0 0
SMALL
GASTEIGER

@<TRIPOS>ATOM
      1 C         144.1666  142.0228  162.5570 C.2     1  UNL1        0.2221
      2 O         145.5909  141.8103  162.1369 O.2     1  UNL1       -0.2751
      3 N         143.1534  142.4993  161.5588 N.am    1  UNL1       -0.3042
      4 H         142.2187  142.6388  161.8345 H       1  UNL1        0.1494
      5 C         142.5227  140.9668  168.2299 C.2     1  UNL1        0.4046
      6 O         142.1867  139.5716  168.6661 O.2     1  UNL1       -0.2262
      7 N         142.9337  141.2308  166.8117 N.am    1  UNL1       -0.2460
      8 C         143.2698  142.6262  166.3756 C.3     1  UNL1        0.0972
      9 C         143.6807  142.8902  164.9573 C.3     1  UNL1        0.0307
     10 C         143.7557  141.7588  163.9752 C.3     1  UNL1        0.0799
     11 C         143.4196  140.3636  164.4113 C.3     1  UNL1        0.0307
     12 C         143.0087  140.0996  165.8296 C.3     1  UNL1        0.0972
     13 O         142.4478  142.0982  169.2120 O.3     1  UNL1       -0.4418
     14 C         141.7322  141.8084  171.1879 C.3     1  UNL1        0.0437
     15 C         141.1612  142.3866  169.9271 C.3     1  UNL1        0.1378
     16 C         140.5901  142.9648  168.6664 C.3     1  UNL1        0.0437
     17 C         139.8745  142.6750  170.6422 C.3     1  UNL1        0.0437
     18 C         143.5644  142.7633  160.1406 C.3     1  UNL1        0.0928
     19 C         142.5211  142.9208  159.0743 C.3     1  UNL1        0.0615
     20 C         142.1042  144.2914  158.6297 C.3     1  UNL1        0.1656
     21 N         141.8577  145.3669  159.6457 N.pl3   1  UNL1       -0.2201
     22 H         142.2273  146.2688  159.5073 H       1  UNL1        0.2456
     23 C         141.0482  145.0682  160.8727 C.cat   1  UNL1        0.4200
     24 N         139.5681  144.8290  160.9159 N.2     1  UNL1       -0.0679
     25 C         139.1818  144.5693  162.3419 C.2     1  UNL1        0.1887
     26 C         137.8601  144.2713  162.9854 C.2     1  UNL1        0.0395
     27 C         137.7798  144.0520  164.4670 C.2     1  UNL1       -0.0010
     28 C         139.0213  144.1307  165.3052 C.2     1  UNL1       -0.0181
     29 C         140.3430  144.4286  164.6617 C.3     1  UNL1        0.0932
     30 C         140.4233  144.6479  163.1800 C.2     1  UNL1        0.1744
     31 N         141.5768  144.9563  162.2721 N.2     1  UNL1       -0.0718
@<TRIPOS>BOND
     1    14    15    1
     2    15    16    1
     3    15    17    1
     4    15    13    1
     5    13     5    1
     6     5     6    2
     7     5     7   am
     8     7     8    1
     9     8     9    1
    10     9    10    1
    11    10     1    1
    12     1     2    2
    13     1     3   am
    14     3    18    1
    15    18    19    1
    16    19    20    1
    17    20    21    1
    18    21    23    1
    19    23    24    2
    20    24    25    1
    21    25    26    2
    22    26    27    1
    23    27    28    2
    24    28    29    1
    25    29    30    1
    26    30    31    2
    27    10    11    1
    28    11    12    1
    29    12     7    1
    30    31    23    1
    31    30    25    1
    32     3     4    1
    33    21    22    1
@<TRIPOS>MOLECULE
*****
 31 33 0 0 0
SMALL
GASTEIGER

@<TRIPOS>ATOM
      1 C         138.8047  139.5381  167.4087 C.2     1  UNL1        0.2221
      2 O         137.7467  138.6018  167.9126 O.2     1  UNL1       -0.2751
      3 N         139.5416  140.4239  168.3690 N.am    1  UNL1       -0.3042
      4 H         140.2360  141.0384  168.0383 H       1  UNL1        0.1494
      5 C         140.0891  139.7400  161.5512 C.2     1  UNL1        0.4046
      6 O         140.1878  141.0624  160.8502 O.2     1  UNL1       -0.2262
      7 N         139.7680  139.6896  163.0156 N.am    1  UNL1       -0.2460
      8 C         139.6693  138.3671  163.7166 C.3     1  UNL1        0.0972
      9 C         139.3482  138.3166  165.1810 C.3     1  UNL1        0.0307
     10 C         139.1258  139.5886  165.9443 C.3     1  UNL1        0.0799
     11 C         139.2245  140.9110  165.2433 C.3     1  UNL1        0.0307
     12 C         139.5456  140.9615  163.7789 C.3     1  UNL1        0.0972
     13 O         140.3115  138.4680  160.7879 O.3     1  UNL1       -0.4418
     14 C         140.4729  138.5365  158.6738 C.3     1  UNL1        0.0437
     15 C         141.4418  138.3700  159.8067 C.3     1  UNL1        0.1378
     16 C         142.4108  138.2035  160.9396 C.3     1  UNL1        0.0437
     17 C         142.5722  138.2720  158.8255 C.3     1  UNL1        0.0437
     18 C         139.2205  140.3734  169.8334 C.3     1  UNL1        0.0928
     19 C         140.2856  140.0026  170.8224 C.3     1  UNL1        0.0615
     20 C         141.3160  141.0139  171.2293 C.3     1  UNL1        0.1656
     21 N         142.6522  141.0390  170.5482 N.pl3   1  UNL1       -0.2201
     22 H         143.4563  141.3023  171.0515 H       1  UNL1        0.2456
     23 C         142.7632  140.6628  169.1004 C.cat   1  UNL1        0.4200
     24 N         142.8645  139.2684  168.5570 N.2     1  UNL1       -0.0679
     25 C         142.9563  139.3588  167.0625 C.2     1  UNL1        0.1887
     26 C         143.0747  138.3079  165.9988 C.2     1  UNL1        0.0395
     27 C         143.1485  138.7073  164.5549 C.2     1  UNL1       -0.0010
     28 C         143.1039  140.1577  164.1747 C.2     1  UNL1       -0.0181
     29 C         142.9855  141.2086  165.2384 C.3     1  UNL1        0.0932
     30 C         142.9117  140.8091  166.6823 C.2     1  UNL1        0.1744
     31 N         142.7923  141.6150  167.9418 N.2     1  UNL1       -0.0718
@<TRIPOS>BOND
     1    14    15    1
     2    15    16    1
     3    15    17    1
     4    15    13    1
     5    13     5    1
     6     5     6    2
     7     5     7   am
     8     7     8    1
     9     8     9    1
    10     9    10    1
    11    10     1    1
    12     1     2    2
    13     1     3   am
    14     3    18    1
    15    18    19    1
    16    19    20    1
    17    20    21    1
    18    21    23    1
    19    23    24    2
    20    24    25    1
    21    25    26    2
    22    26    27    1
    23    27    28    2
    24    28    29    1
    25    29    30    1
    26    30    31    2
    27    10    11    1
    28    11    12    1
    29    12     7    1
    30    31    23    1
    31    30    25    1
    32     3     4    1
    33    21    22    1
@<TRIPOS>MOLECULE
*****
 31 33 0 0 0
SMALL
GASTEIGER

@<TRIPOS>ATOM
      1 C         143.6464  139.3468  162.1938 C.2     1  UNL1        0.2221
      2 O         144.0374  137.9423  161.8405 O.2     1  UNL1       -0.2751
      3 N         143.5208  140.3836  161.1171 N.am    1  UNL1       -0.3042
      4 H         143.2642  141.3053  161.3490 H       1  UNL1        0.1494
      5 C         142.5854  140.8170  167.9132 C.2     1  UNL1        0.4046
      6 O         142.2420  139.7505  168.9105 O.2     1  UNL1       -0.2262
      7 N         142.8506  140.4495  166.4834 N.am    1  UNL1       -0.2460
      8 C         143.1941  141.5161  165.4861 C.3     1  UNL1        0.0972
      9 C         143.4593  141.1485  164.0562 C.3     1  UNL1        0.0307
     10 C         143.3812  139.7143  163.6236 C.3     1  UNL1        0.0799
     11 C         143.0378  138.6478  164.6209 C.3     1  UNL1        0.0307
     12 C         142.7725  139.0154  166.0507 C.3     1  UNL1        0.0972
     13 O         142.6635  142.2512  168.3459 O.3     1  UNL1       -0.4418
     14 C         142.4717  143.0217  170.3130 C.3     1  UNL1        0.0437
     15 C         141.5466  142.8558  169.1439 C.3     1  UNL1        0.1378
     16 C         140.6215  142.6898  167.9749 C.3     1  UNL1        0.0437
     17 C         140.4296  143.4603  169.9420 C.3     1  UNL1        0.0437
     18 C         143.7861  140.0160  159.6873 C.3     1  UNL1        0.0928
     19 C         142.6444  139.6717  158.7772 C.3     1  UNL1        0.0615
     20 C         141.8610  138.4121  159.0004 C.3     1  UNL1        0.1656
     21 N         140.4401  138.4868  159.4750 N.pl3   1  UNL1       -0.2201
     22 H         139.7007  138.3852  158.8330 H       1  UNL1        0.2456
     23 C         140.1457  138.7162  160.9279 C.cat   1  UNL1        0.4200
     24 N         140.1627  140.0403  161.6325 N.2     1  UNL1       -0.0679
     25 C         139.8102  139.8043  163.0713 C.2     1  UNL1        0.1887
     26 C         139.6727  140.7379  164.2372 C.2     1  UNL1        0.0395
     27 C         139.3003  140.2016  165.5876 C.2     1  UNL1       -0.0010
     28 C         139.0655  138.7317  165.7722 C.2     1  UNL1       -0.0181
     29 C         139.2030  137.7980  164.6063 C.3     1  UNL1        0.0932
     30 C         139.5753  138.3343  163.2559 C.2     1  UNL1        0.1744
     31 N         139.7827  137.6619  161.9311 N.2     1  UNL1       -0.0718
@<TRIPOS>BOND
     1    14    15    1
     2    15    16    1
     3    15    17    1
     4    15    13    1
     5    13     5    1
     6     5     6    2
     7     5     7   am
     8     7     8    1
     9     8     9    1
    10     9    10    1
    11    10     1    1
    12     1     2    2
    13     1     3   am
    14     3    18    1
    15    18    19    1
    16    19    20    1
    17    20    21    1
    18    21    23    1
    19    23    24    2
    20    24    25    1
    21    25    26    2
    22    26    27    1
    23    27    28    2
    24    28    29    1
    25    29    30    1
    26    30    31    2
    27    10    11    1
    28    11    12    1
    29    12     7    1
    30    31    23    1
    31    30    25    1
    32     3     4    1
    33    21    22    1
@<TRIPOS>MOLECULE
*****
 31 33 0 0 0
SMALL
GASTEIGER

@<TRIPOS>ATOM
      1 C         143.4156  143.1612  161.5899 C.2     1  UNL1        0.2221
      2 O         142.6532  144.2633  160.9158 O.2     1  UNL1       -0.2751
      3 N         144.3700  142.3167  160.7988 N.am    1  UNL1       -0.3042
      4 H         144.8704  141.5934  161.2413 H       1  UNL1        0.1494
      5 C         142.6471  142.1312  167.4507 C.2     1  UNL1        0.4046
      6 O         143.6804  142.5927  168.4351 O.2     1  UNL1       -0.2262
      7 N         142.8392  142.3887  165.9855 N.am    1  UNL1       -0.2460
      8 C         141.8058  141.9271  165.0010 C.3     1  UNL1        0.0972
      9 C         141.9979  142.1846  163.5359 C.3     1  UNL1        0.0307
     10 C         143.2234  142.9037  163.0551 C.3     1  UNL1        0.0799
     11 C         144.2568  143.3652  164.0396 C.3     1  UNL1        0.0307
     12 C         144.0647  143.1077  165.5047 C.3     1  UNL1        0.0972
     13 O         141.4215  141.4121  167.9314 O.3     1  UNL1       -0.4418
     14 C         140.3388  143.1595  168.4551 C.3     1  UNL1        0.0437
     15 C         140.7066  141.8882  169.1611 C.3     1  UNL1        0.1378
     16 C         141.0744  140.6169  169.8672 C.3     1  UNL1        0.0437
     17 C         139.9917  142.3643  170.3909 C.3     1  UNL1        0.0437
     18 C         144.5621  142.5742  159.3337 C.3     1  UNL1        0.0928
     19 C         144.3587  141.4652  158.3443 C.3     1  UNL1        0.0615
     20 C         143.2706  140.4560  158.5621 C.3     1  UNL1        0.1656
     21 N         143.5845  139.1448  159.2195 N.pl3   1  UNL1       -0.2201
     22 H         143.8592  138.3734  158.6730 H       1  UNL1        0.2456
     23 C         143.4798  139.0089  160.7097 C.cat   1  UNL1        0.4200
     24 N         144.4864  139.4908  161.7119 N.2     1  UNL1       -0.0679
     25 C         143.9788  139.1469  163.0809 C.2     1  UNL1        0.1887
     26 C         144.5483  139.3764  164.4494 C.2     1  UNL1        0.0395
     27 C         143.7975  138.9115  165.6619 C.2     1  UNL1       -0.0010
     28 C         142.4771  138.2170  165.5057 C.2     1  UNL1       -0.0181
     29 C         141.9076  137.9875  164.1372 C.3     1  UNL1        0.0932
     30 C         142.6584  138.4525  162.9248 C.2     1  UNL1        0.1744
     31 N         142.3500  138.3672  161.4593 N.2     1  UNL1       -0.0718
@<TRIPOS>BOND
     1    14    15    1
     2    15    16    1
     3    15    17    1
     4    15    13    1
     5    13     5    1
     6     5     6    2
     7     5     7   am
     8     7     8    1
     9     8     9    1
    10     9    10    1
    11    10     1    1
    12     1     2    2
    13     1     3   am
    14     3    18    1
    15    18    19    1
    16    19    20    1
    17    20    21    1
    18    21    23    1
    19    23    24    2
    20    24    25    1
    21    25    26    2
    22    26    27    1
    23    27    28    2
    24    28    29    1
    25    29    30    1
    26    30    31    2
    27    10    11    1
    28    11    12    1
    29    12     7    1
    30    31    23    1
    31    30    25    1
    32     3     4    1
    33    21    22    1
@<TRIPOS>MOLECULE
*****
 31 33 0 0 0
SMALL
GASTEIGER

@<TRIPOS>ATOM
      1 C         138.7034  142.8579  162.2181 C.2     1  UNL1        0.2221
      2 O         137.7441  144.0037  162.0872 O.2     1  UNL1       -0.2751
      3 N         139.4355  142.3510  161.0111 N.am    1  UNL1       -0.3042
      4 H         140.0650  141.5990  161.0970 H       1  UNL1        0.1494
      5 C         139.6120  140.3028  167.5703 C.2     1  UNL1        0.4046
      6 O         138.7531  139.1537  168.0083 O.2     1  UNL1       -0.2262
      7 N         139.3848  140.9415  166.2323 N.am    1  UNL1       -0.2460
      8 C         140.2438  142.0907  165.7943 C.3     1  UNL1        0.0972
      9 C         140.0166  142.7295  164.4562 C.3     1  UNL1        0.0307
     10 C         138.9305  142.2191  163.5562 C.3     1  UNL1        0.0799
     11 C         138.0717  141.0700  163.9942 C.3     1  UNL1        0.0307
     12 C         138.2988  140.4313  165.3322 C.3     1  UNL1        0.0972
     13 O         140.6981  140.8131  168.4703 O.3     1  UNL1       -0.4418
     14 C         140.8261  140.0511  170.4459 C.3     1  UNL1        0.0437
     15 C         141.6013  139.8471  169.1781 C.3     1  UNL1        0.1378
     16 C         142.3766  139.6431  167.9103 C.3     1  UNL1        0.0437
     17 C         142.5045  138.8810  169.8859 C.3     1  UNL1        0.0437
     18 C         139.2083  142.9898  159.6730 C.3     1  UNL1        0.0928
     19 C         139.9512  144.2392  159.3026 C.3     1  UNL1        0.0615
     20 C         140.7601  144.9652  160.3364 C.3     1  UNL1        0.1656
     21 N         142.2504  144.7996  160.3749 N.pl3   1  UNL1       -0.2201
     22 H         142.8262  145.4010  159.8495 H       1  UNL1        0.2456
     23 C         142.8634  143.7177  161.2138 C.cat   1  UNL1        0.4200
     24 N         144.1419  143.8226  161.9913 N.2     1  UNL1       -0.0679
     25 C         144.3742  142.5108  162.6806 C.2     1  UNL1        0.1887
     26 C         145.4725  142.0317  163.5829 C.2     1  UNL1        0.0395
     27 C         145.4360  140.6370  164.1336 C.2     1  UNL1       -0.0010
     28 C         144.3011  139.7213  163.7821 C.2     1  UNL1       -0.0181
     29 C         143.2027  140.2004  162.8798 C.3     1  UNL1        0.0932
     30 C         143.2393  141.5951  162.3291 C.2     1  UNL1        0.1744
     31 N         142.3056  142.3411  161.4226 N.2     1  UNL1       -0.0718
@<TRIPOS>BOND
     1    14    15    1
     2    15    16    1
     3    15    17    1
     4    15    13    1
     5    13     5    1
     6     5     6    2
     7     5     7   am
     8     7     8    1
     9     8     9    1
    10     9    10    1
    11    10     1    1
    12     1     2    2
    13     1     3   am
    14     3    18    1
    15    18    19    1
    16    19    20    1
    17    20    21    1
    18    21    23    1
    19    23    24    2
    20    24    25    1
    21    25    26    2
    22    26    27    1
    23    27    28    2
    24    28    29    1
    25    29    30    1
    26    30    31    2
    27    10    11    1
    28    11    12    1
    29    12     7    1
    30    31    23    1
    31    30    25    1
    32     3     4    1
    33    21    22    1
@<TRIPOS>MOLECULE
*****
 31 33 0 0 0
SMALL
GASTEIGER

@<TRIPOS>ATOM
      1 C         138.6514  142.3321  162.0480 C.2     1  UNL1        0.2221
      2 O         137.7578  143.5367  162.0260 O.2     1  UNL1       -0.2751
      3 N         139.0878  141.6984  160.7604 N.am    1  UNL1       -0.3042
      4 H         139.6743  140.9078  160.7748 H       1  UNL1        0.1494
      5 C         140.4802  140.0487  167.2865 C.2     1  UNL1        0.4046
      6 O         139.4726  139.6533  168.3249 O.2     1  UNL1       -0.2262
      7 N         140.0230  140.6195  165.9769 N.am    1  UNL1       -0.2460
      8 C         141.0307  141.0150  164.9384 C.3     1  UNL1        0.0972
      9 C         140.5735  141.5858  163.6288 C.3     1  UNL1        0.0307
     10 C         139.1086  141.7612  163.3576 C.3     1  UNL1        0.0799
     11 C         138.1010  141.3658  164.3960 C.3     1  UNL1        0.0307
     12 C         138.5582  140.7950  165.7057 C.3     1  UNL1        0.0972
     13 O         141.9451  139.8733  167.5576 O.3     1  UNL1       -0.4418
     14 C         142.5320  139.1239  169.4534 C.3     1  UNL1        0.0437
     15 C         142.5562  140.4695  168.7910 C.3     1  UNL1        0.1378
     16 C         142.5803  141.8150  168.1285 C.3     1  UNL1        0.0437
     17 C         143.1672  141.0657  170.0243 C.3     1  UNL1        0.0437
     18 C         138.6306  142.2692  159.4508 C.3     1  UNL1        0.0928
     19 C         138.3304  141.3566  158.2987 C.3     1  UNL1        0.0615
     20 C         139.3575  140.3637  157.8411 C.3     1  UNL1        0.1656
     21 N         139.2783  138.9376  158.2992 N.pl3   1  UNL1       -0.2201
     22 H         139.0172  138.2308  157.6656 H       1  UNL1        0.2456
     23 C         139.5971  138.5884  159.7228 C.cat   1  UNL1        0.4200
     24 N         138.6032  138.4253  160.8343 N.2     1  UNL1       -0.0679
     25 C         139.3575  138.0770  162.0832 C.2     1  UNL1        0.1887
     26 C         138.9035  137.8006  163.4859 C.2     1  UNL1        0.0395
     27 C         139.9096  137.4720  164.5488 C.2     1  UNL1       -0.0010
     28 C         141.3696  137.4198  164.2090 C.2     1  UNL1       -0.0181
     29 C         141.8237  137.6962  162.8064 C.3     1  UNL1        0.0932
     30 C         140.8176  138.0248  161.7435 C.2     1  UNL1        0.1744
     31 N         140.9656  138.3408  160.2847 N.2     1  UNL1       -0.0718
@<TRIPOS>BOND
     1    14    15    1
     2    15    16    1
     3    15    17    1
     4    15    13    1
     5    13     5    1
     6     5     6    2
     7     5     7   am
     8     7     8    1
     9     8     9    1
    10     9    10    1
    11    10     1    1
    12     1     2    2
    13     1     3   am
    14     3    18    1
    15    18    19    1
    16    19    20    1
    17    20    21    1
    18    21    23    1
    19    23    24    2
    20    24    25    1
    21    25    26    2
    22    26    27    1
    23    27    28    2
    24    28    29    1
    25    29    30    1
    26    30    31    2
    27    10    11    1
    28    11    12    1
    29    12     7    1
    30    31    23    1
    31    30    25    1
    32     3     4    1
    33    21    22    1
