@<TRIPOS>MOLECULE
*****
 37 42 0 0 0
SMALL
GASTEIGER

@<TRIPOS>ATOM
      1 C         138.4773  138.9649  165.4872 C.ar    1  UNL1        0.0536
      2 C         138.0621  140.1097  164.6114 C.ar    1  UNL1        0.0042
      3 C         138.0846  139.9590  163.1192 C.ar    1  UNL1       -0.0041
      4 C         138.5222  138.6635  162.5026 C.ar    1  UNL1       -0.0208
      5 C         138.9374  137.5186  163.3785 C.ar    1  UNL1       -0.0041
      6 C         138.9149  137.6693  164.8707 C.ar    1  UNL1        0.0042
      7 C         142.0010  141.9551  169.3130 C.3     1  UNL1        0.0816
      8 C         140.7854  141.0791  169.3831 C.3     1  UNL1        0.0308
      9 C         139.6011  140.1909  169.1415 C.3     1  UNL1        0.0942
     10 N         139.4964  139.9495  167.6648 N.am    1  UNL1       -0.2761
     11 C         138.4549  139.1155  166.9794 C.2     1  UNL1        0.2490
     12 O         137.3909  138.4321  167.7863 O.2     1  UNL1       -0.2699
     13 C         140.6160  140.6885  166.9937 C.3     1  UNL1        0.0942
     14 C         141.4127  141.3866  168.0557 C.3     1  UNL1        0.0308
     15 C         145.1839  143.7006  170.6870 C.ar    1  UNL1        0.2261
     16 N         144.1064  144.4444  171.4191 N.ar    1  UNL1       -0.1117
     17 N         142.7830  143.8811  170.9935 N.ar    1  UNL1       -0.1117
     18 C         143.0425  142.7891  169.9984 C.ar    1  UNL1        0.2257
     19 O         144.5262  142.6776  169.8090 O.2     1  UNL1       -0.4233
     20 C         147.1655  145.1978  171.4495 C.3     1  UNL1        0.0103
     21 C         146.6597  143.9382  170.8112 C.3     1  UNL1        0.0870
     22 C         138.5446  138.5129  161.0104 C.3     1  UNL1        0.0420
     23 C         139.8162  138.7521  160.2515 C.3     1  UNL1        0.0585
     24 C         140.0472  138.4496  158.8006 C.3     1  UNL1        0.0175
     25 C         141.4537  138.8464  158.4626 C.3     1  UNL1        0.0199
     26 C         142.0920  139.3942  159.7046 C.3     1  UNL1        0.0855
     27 N         141.0799  139.3360  160.8102 N.3     1  UNL1       -0.2971
     28 H         140.9000  140.2753  161.1647 H       1  UNL1        0.1233
     29 C         143.4958  139.9098  159.8206 C.3     1  UNL1        0.1470
     30 O         144.3089  140.1562  158.5844 O.3     1  UNL1       -0.3787
     31 H         145.1862  140.4856  158.8348 H       1  UNL1        0.2108
     32 C         144.0865  140.1789  161.1729 C.ar    1  UNL1        0.0055
     33 C         144.0815  139.1056  162.2207 C.ar    1  UNL1       -0.0019
     34 C         144.6723  139.3748  163.5729 C.ar    1  UNL1       -0.0002
     35 C         145.2680  140.7173  163.8774 C.ar    1  UNL1       -0.0000
     36 C         145.2730  141.7906  162.8296 C.ar    1  UNL1       -0.0002
     37 C         144.6822  141.5214  161.4774 C.ar    1  UNL1       -0.0019
@<TRIPOS>BOND
     1    20    21    1
     2    21    15    1
     3    15    16   ar
     4    16    17   ar
     5    17    18   ar
     6     7    18    1
     7     7     8    1
     8     8     9    1
     9     9    10    1
    10    10    11   am
    11    11    12    2
    12    11     1    1
    13     1     2   ar
    14     2     3   ar
    15     3     4   ar
    16     4    22    1
    17    23    22    1
    18    23    24    1
    19    24    25    1
    20    26    25    1
    21    26    29    1
    22    29    30    1
    23    29    32    1
    24    32    33   ar
    25    33    34   ar
    26    34    35   ar
    27    35    36   ar
    28    36    37   ar
    29    26    27    1
    30     4     5   ar
    31     5     6   ar
    32    10    13    1
    33    14    13    1
    34    18    19   ar
    35    19    15   ar
    36    14     7    1
    37    14     8    1
    38     6     1   ar
    39    27    23    1
    40    37    32   ar
    41    30    31    1
    42    27    28    1
@<TRIPOS>MOLECULE
*****
 37 42 0 0 0
SMALL
GASTEIGER

@<TRIPOS>ATOM
      1 C         139.4584  139.7819  167.9542 C.ar    1  UNL1        0.0536
      2 C         138.1595  139.1523  167.5462 C.ar    1  UNL1        0.0042
      3 C         138.0036  138.5798  166.1686 C.ar    1  UNL1       -0.0041
      4 C         139.1465  138.6370  165.1988 C.ar    1  UNL1       -0.0208
      5 C         140.4455  139.2666  165.6069 C.ar    1  UNL1       -0.0041
      6 C         140.6014  139.8391  166.9845 C.ar    1  UNL1        0.0042
      7 C         143.6785  143.2363  170.4547 C.3     1  UNL1        0.0816
      8 C         142.3903  142.5894  170.8693 C.3     1  UNL1        0.0308
      9 C         141.0977  141.8377  170.9885 C.3     1  UNL1        0.0942
     10 N         140.8080  141.2007  169.6617 N.am    1  UNL1       -0.2761
     11 C         139.6143  140.3543  169.3319 C.2     1  UNL1        0.2490
     12 O         138.5766  140.0803  170.3798 O.2     1  UNL1       -0.2699
     13 C         141.9214  141.5588  168.7225 C.3     1  UNL1        0.0942
     14 C         142.8994  142.4171  169.4689 C.3     1  UNL1        0.0308
     15 C         146.2821  145.8152  171.7339 C.ar    1  UNL1        0.2261
     16 N         147.1360  144.9552  170.8500 N.ar    1  UNL1       -0.1117
     17 N         146.2647  143.8845  170.2632 N.ar    1  UNL1       -0.1117
     18 C         144.8722  144.0827  170.7845 C.ar    1  UNL1        0.2257
     19 O         144.8830  145.2759  171.6933 O.2     1  UNL1       -0.4233
     20 C         147.1743  146.8403  173.9481 C.3     1  UNL1        0.0103
     21 C         146.7458  147.0054  172.5201 C.3     1  UNL1        0.0870
     22 C         138.9906  138.0645  163.8212 C.3     1  UNL1        0.0420
     23 C         138.6144  138.9575  162.6762 C.3     1  UNL1        0.0585
     24 C         137.6371  138.6295  161.5865 C.3     1  UNL1        0.0175
     25 C         137.5681  139.8045  160.6567 C.3     1  UNL1        0.0199
     26 C         138.5027  140.8587  161.1716 C.3     1  UNL1        0.0855
     27 N         139.1493  140.3352  162.4198 N.3     1  UNL1       -0.2971
     28 H         138.9270  140.9449  163.2067 H       1  UNL1        0.1233
     29 C         138.7477  142.2007  160.5480 C.3     1  UNL1        0.1470
     30 O         138.2548  142.4840  159.1599 O.3     1  UNL1       -0.3787
     31 H         138.4945  143.3901  158.9103 H       1  UNL1        0.2108
     32 C         139.4856  143.2595  161.3125 C.ar    1  UNL1        0.0055
     33 C         140.8938  143.6129  160.9355 C.ar    1  UNL1       -0.0019
     34 C         141.6316  144.6717  161.7001 C.ar    1  UNL1       -0.0002
     35 C         140.9612  145.3771  162.8416 C.ar    1  UNL1       -0.0000
     36 C         139.5531  145.0237  163.2185 C.ar    1  UNL1       -0.0002
     37 C         138.8152  143.9649  162.4540 C.ar    1  UNL1       -0.0019
@<TRIPOS>BOND
     1    20    21    1
     2    21    15    1
     3    15    16   ar
     4    16    17   ar
     5    17    18   ar
     6     7    18    1
     7     7     8    1
     8     8     9    1
     9     9    10    1
    10    10    11   am
    11    11    12    2
    12    11     1    1
    13     1     2   ar
    14     2     3   ar
    15     3     4   ar
    16     4    22    1
    17    23    22    1
    18    23    24    1
    19    24    25    1
    20    26    25    1
    21    26    29    1
    22    29    30    1
    23    29    32    1
    24    32    33   ar
    25    33    34   ar
    26    34    35   ar
    27    35    36   ar
    28    36    37   ar
    29    26    27    1
    30     4     5   ar
    31     5     6   ar
    32    10    13    1
    33    14    13    1
    34    18    19   ar
    35    19    15   ar
    36    14     7    1
    37    14     8    1
    38     6     1   ar
    39    27    23    1
    40    37    32   ar
    41    30    31    1
    42    27    28    1
@<TRIPOS>MOLECULE
*****
 37 42 0 0 0
SMALL
GASTEIGER

@<TRIPOS>ATOM
      1 C         143.1088  138.6904  159.1232 C.ar    1  UNL1        0.0536
      2 C         142.9698  137.6505  160.1951 C.ar    1  UNL1        0.0042
      3 C         143.4245  137.9488  161.5931 C.ar    1  UNL1       -0.0041
      4 C         144.0182  139.2872  161.9191 C.ar    1  UNL1       -0.0208
      5 C         144.1572  140.3272  160.8470 C.ar    1  UNL1       -0.0041
      6 C         143.7025  140.0288  159.4491 C.ar    1  UNL1        0.0042
      7 C         138.0907  140.0297  156.1199 C.3     1  UNL1        0.0816
      8 C         139.3758  139.3021  155.8573 C.3     1  UNL1        0.0308
      9 C         140.7273  138.6524  155.8909 C.3     1  UNL1        0.0942
     10 N         141.3138  138.8730  157.2537 N.am    1  UNL1       -0.2761
     11 C         142.6541  138.3921  157.7252 C.2     1  UNL1        0.2490
     12 O         143.5397  137.6127  156.7988 O.2     1  UNL1       -0.2699
     13 C         140.3248  139.6591  158.0623 C.3     1  UNL1        0.0942
     14 C         139.1270  139.9243  157.1992 C.3     1  UNL1        0.0308
     15 C         134.3633  140.9300  155.5180 C.ar    1  UNL1        0.2261
     16 N         135.0125  141.5718  154.3277 N.ar    1  UNL1       -0.1117
     17 N         136.4877  141.3126  154.4083 N.ar    1  UNL1       -0.1117
     18 C         136.7504  140.5107  155.6484 C.ar    1  UNL1        0.2257
     19 O         135.4375  140.2743  156.3342 O.2     1  UNL1       -0.4233
     20 C         132.3248  139.9187  156.7716 C.3     1  UNL1        0.0103
     21 C         132.8976  140.9419  155.8362 C.3     1  UNL1        0.0870
     22 C         144.4729  139.5856  163.3170 C.3     1  UNL1        0.0420
     23 C         143.4951  139.5244  164.4528 C.3     1  UNL1        0.0585
     24 C         143.6684  138.7481  165.7246 C.3     1  UNL1        0.0175
     25 C         142.4528  138.9727  166.5740 C.3     1  UNL1        0.0199
     26 C         141.5280  139.8877  165.8274 C.3     1  UNL1        0.0855
     27 N         142.1722  140.2287  164.5163 N.3     1  UNL1       -0.2971
     28 H         142.3134  141.2368  164.4518 H       1  UNL1        0.1233
     29 C         140.1935  140.3761  166.3074 C.3     1  UNL1        0.1470
     30 O         138.9731  140.1799  165.4577 O.3     1  UNL1       -0.3787
     31 H         138.2000  140.5504  165.9116 H       1  UNL1        0.2108
     32 C         140.0793  141.0606  167.6372 C.ar    1  UNL1        0.0055
     33 C         140.5806  142.4646  167.8036 C.ar    1  UNL1       -0.0019
     34 C         140.4664  143.1491  169.1334 C.ar    1  UNL1       -0.0002
     35 C         139.8510  142.4296  170.2969 C.ar    1  UNL1       -0.0000
     36 C         139.3498  141.0257  170.1305 C.ar    1  UNL1       -0.0002
     37 C         139.4640  140.3412  168.8007 C.ar    1  UNL1       -0.0019
@<TRIPOS>BOND
     1    20    21    1
     2    21    15    1
     3    15    16   ar
     4    16    17   ar
     5    17    18   ar
     6     7    18    1
     7     7     8    1
     8     8     9    1
     9     9    10    1
    10    10    11   am
    11    11    12    2
    12    11     1    1
    13     1     2   ar
    14     2     3   ar
    15     3     4   ar
    16     4    22    1
    17    23    22    1
    18    23    24    1
    19    24    25    1
    20    26    25    1
    21    26    29    1
    22    29    30    1
    23    29    32    1
    24    32    33   ar
    25    33    34   ar
    26    34    35   ar
    27    35    36   ar
    28    36    37   ar
    29    26    27    1
    30     4     5   ar
    31     5     6   ar
    32    10    13    1
    33    14    13    1
    34    18    19   ar
    35    19    15   ar
    36    14     7    1
    37    14     8    1
    38     6     1   ar
    39    27    23    1
    40    37    32   ar
    41    30    31    1
    42    27    28    1
@<TRIPOS>MOLECULE
*****
 37 42 0 0 0
SMALL
GASTEIGER

@<TRIPOS>ATOM
      1 C         143.5682  139.7048  159.6692 C.ar    1  UNL1        0.0536
      2 C         143.3958  138.3683  160.3279 C.ar    1  UNL1        0.0042
      3 C         143.6807  138.2115  161.7923 C.ar    1  UNL1       -0.0041
      4 C         144.1381  139.3913  162.5979 C.ar    1  UNL1       -0.0208
      5 C         144.3106  140.7278  161.9390 C.ar    1  UNL1       -0.0041
      6 C         144.0256  140.8846  160.4747 C.ar    1  UNL1        0.0042
      7 C         138.4858  140.5562  156.5969 C.3     1  UNL1        0.0816
      8 C         139.9483  140.4111  156.2968 C.3     1  UNL1        0.0308
      9 C         141.4381  140.2366  156.3076 C.3     1  UNL1        0.0942
     10 N         141.8743  140.0656  157.7326 N.am    1  UNL1       -0.2761
     11 C         143.2833  139.8615  158.2048 C.2     1  UNL1        0.2490
     12 O         144.4074  139.8143  157.2128 O.2     1  UNL1       -0.2699
     13 C         140.6541  140.1343  158.6023 C.3     1  UNL1        0.0942
     14 C         139.4638  140.3479  157.7150 C.3     1  UNL1        0.0308
     15 C         134.6550  140.6819  155.9846 C.ar    1  UNL1        0.2261
     16 N         135.1621  141.4665  154.8110 N.ar    1  UNL1       -0.1117
     17 N         136.6588  141.5149  154.8975 N.ar    1  UNL1       -0.1117
     18 C         137.0768  140.7602  156.1246 C.ar    1  UNL1        0.2257
     19 O         135.8385  140.2455  156.7964 O.2     1  UNL1       -0.4233
     20 C         132.8631  139.5381  157.4780 C.3     1  UNL1        0.0103
     21 C         133.2172  140.3858  156.2923 C.3     1  UNL1        0.0870
     22 C         144.4230  139.2345  164.0622 C.3     1  UNL1        0.0420
     23 C         143.3179  139.3985  165.0630 C.3     1  UNL1        0.0585
     24 C         143.4032  139.0917  166.5288 C.3     1  UNL1        0.0175
     25 C         142.0714  139.4017  167.1455 C.3     1  UNL1        0.0199
     26 C         141.1631  139.9002  166.0609 C.3     1  UNL1        0.0855
     27 N         141.9335  139.8982  164.7738 N.3     1  UNL1       -0.2971
     28 H         141.9789  140.8446  164.3962 H       1  UNL1        0.1233
     29 C         139.7351  140.3259  166.2331 C.3     1  UNL1        0.1470
     30 O         138.7963  139.4890  167.0504 O.3     1  UNL1       -0.3787
     31 H         137.9191  139.9029  167.0601 H       1  UNL1        0.2108
     32 C         139.2460  141.5887  165.5879 C.ar    1  UNL1        0.0055
     33 C         139.9071  142.8974  165.9043 C.ar    1  UNL1       -0.0019
     34 C         139.4180  144.1601  165.2591 C.ar    1  UNL1       -0.0002
     35 C         138.2676  144.1141  164.2975 C.ar    1  UNL1       -0.0000
     36 C         137.6065  142.8054  163.9811 C.ar    1  UNL1       -0.0002
     37 C         138.0957  141.5427  164.6263 C.ar    1  UNL1       -0.0019
@<TRIPOS>BOND
     1    20    21    1
     2    21    15    1
     3    15    16   ar
     4    16    17   ar
     5    17    18   ar
     6     7    18    1
     7     7     8    1
     8     8     9    1
     9     9    10    1
    10    10    11   am
    11    11    12    2
    12    11     1    1
    13     1     2   ar
    14     2     3   ar
    15     3     4   ar
    16     4    22    1
    17    23    22    1
    18    23    24    1
    19    24    25    1
    20    26    25    1
    21    26    29    1
    22    29    30    1
    23    29    32    1
    24    32    33   ar
    25    33    34   ar
    26    34    35   ar
    27    35    36   ar
    28    36    37   ar
    29    26    27    1
    30     4     5   ar
    31     5     6   ar
    32    10    13    1
    33    14    13    1
    34    18    19   ar
    35    19    15   ar
    36    14     7    1
    37    14     8    1
    38     6     1   ar
    39    27    23    1
    40    37    32   ar
    41    30    31    1
    42    27    28    1
@<TRIPOS>MOLECULE
*****
 37 42 0 0 0
SMALL
GASTEIGER

@<TRIPOS>ATOM
      1 C         143.6580  142.4830  158.7722 C.ar    1  UNL1        0.0536
      2 C         142.4321  143.3415  158.6719 C.ar    1  UNL1        0.0042
      3 C         141.8906  144.0216  159.8943 C.ar    1  UNL1       -0.0041
      4 C         142.5749  143.8431  161.2171 C.ar    1  UNL1       -0.0208
      5 C         143.8009  142.9845  161.3174 C.ar    1  UNL1       -0.0041
      6 C         144.3424  142.3045  160.0950 C.ar    1  UNL1        0.0042
      7 C         142.8386  136.9965  156.4873 C.3     1  UNL1        0.0816
      8 C         143.6128  138.2339  156.1419 C.3     1  UNL1        0.0308
      9 C         144.2575  139.5857  156.0581 C.3     1  UNL1        0.0942
     10 N         143.7999  140.3913  157.2377 N.am    1  UNL1       -0.2761
     11 C         144.1996  141.8030  157.5498 C.2     1  UNL1        0.2490
     12 O         145.1408  142.5347  156.6395 O.2     1  UNL1       -0.2699
     13 C         142.8723  139.5375  158.0505 C.3     1  UNL1        0.0942
     14 C         142.7567  138.2041  157.3732 C.3     1  UNL1        0.0308
     15 C         142.3741  133.1589  156.1368 C.ar    1  UNL1        0.2261
     16 N         141.2734  133.6660  155.2529 N.ar    1  UNL1       -0.1117
     17 N         141.3134  135.1653  155.2766 N.ar    1  UNL1       -0.1117
     18 C         142.4389  135.5848  156.1752 C.ar    1  UNL1        0.2257
     19 O         143.0944  134.3448  156.7067 O.2     1  UNL1       -0.4233
     20 C         142.7827  130.7456  155.2656 C.3     1  UNL1        0.0103
     21 C         142.6977  131.7188  156.4038 C.3     1  UNL1        0.0870
     22 C         142.0334  144.5231  162.4395 C.3     1  UNL1        0.0420
     23 C         140.8522  143.9429  163.1593 C.3     1  UNL1        0.0585
     24 C         140.2635  144.4525  164.4414 C.3     1  UNL1        0.0175
     25 C         139.0998  143.5757  164.7978 C.3     1  UNL1        0.0199
     26 C         138.9692  142.5243  163.7361 C.3     1  UNL1        0.0855
     27 N         140.0523  142.7512  162.7234 N.3     1  UNL1       -0.2971
     28 H         139.6387  142.9280  161.8079 H       1  UNL1        0.1233
     29 C         137.9369  141.4369  163.6943 C.3     1  UNL1        0.1470
     30 O         136.5938  141.7008  163.0808 O.3     1  UNL1       -0.3787
     31 H         136.0504  140.8992  163.1351 H       1  UNL1        0.2108
     32 C         138.2477  140.0854  164.2662 C.ar    1  UNL1        0.0055
     33 C         138.7066  138.9773  163.3655 C.ar    1  UNL1       -0.0019
     34 C         139.0174  137.6258  163.9374 C.ar    1  UNL1       -0.0002
     35 C         138.8692  137.3825  165.4101 C.ar    1  UNL1       -0.0000
     36 C         138.4102  138.4907  166.3108 C.ar    1  UNL1       -0.0002
     37 C         138.0994  139.8421  165.7389 C.ar    1  UNL1       -0.0019
@<TRIPOS>BOND
     1    20    21    1
     2    21    15    1
     3    15    16   ar
     4    16    17   ar
     5    17    18   ar
     6     7    18    1
     7     7     8    1
     8     8     9    1
     9     9    10    1
    10    10    11   am
    11    11    12    2
    12    11     1    1
    13     1     2   ar
    14     2     3   ar
    15     3     4   ar
    16     4    22    1
    17    23    22    1
    18    23    24    1
    19    24    25    1
    20    26    25    1
    21    26    29    1
    22    29    30    1
    23    29    32    1
    24    32    33   ar
    25    33    34   ar
    26    34    35   ar
    27    35    36   ar
    28    36    37   ar
    29    26    27    1
    30     4     5   ar
    31     5     6   ar
    32    10    13    1
    33    14    13    1
    34    18    19   ar
    35    19    15   ar
    36    14     7    1
    37    14     8    1
    38     6     1   ar
    39    27    23    1
    40    37    32   ar
    41    30    31    1
    42    27    28    1
@<TRIPOS>MOLECULE
*****
 37 42 0 0 0
SMALL
GASTEIGER

@<TRIPOS>ATOM
      1 C         139.4290  139.1699  159.5381 C.ar    1  UNL1        0.0536
      2 C         139.5904  138.1509  160.6270 C.ar    1  UNL1        0.0042
      3 C         139.0141  138.4094  161.9875 C.ar    1  UNL1       -0.0041
      4 C         138.2765  139.6870  162.2592 C.ar    1  UNL1       -0.0208
      5 C         138.1151  140.7059  161.1703 C.ar    1  UNL1       -0.0041
      6 C         138.6913  140.4474  159.8097 C.ar    1  UNL1        0.0042
      7 C         144.5577  140.8555  156.9209 C.3     1  UNL1        0.0816
      8 C         143.3465  140.0470  156.5616 C.3     1  UNL1        0.0308
      9 C         142.0420  139.3098  156.4929 C.3     1  UNL1        0.0942
     10 N         141.3423  139.4824  157.8085 N.am    1  UNL1       -0.2761
     11 C         140.0052  138.9114  158.1776 C.2     1  UNL1        0.2490
     12 O         139.2444  138.0818  157.1861 O.2     1  UNL1       -0.2699
     13 C         142.2144  140.3262  158.6902 C.3     1  UNL1        0.0942
     14 C         143.4531  140.6751  157.9196 C.3     1  UNL1        0.0308
     15 C         147.9889  141.8401  155.3967 C.ar    1  UNL1        0.2261
     16 N         147.9157  142.7704  156.5711 N.ar    1  UNL1       -0.1117
     17 N         146.6215  142.5149  157.2850 N.ar    1  UNL1       -0.1117
     18 C         145.8948  141.4266  156.5519 C.ar    1  UNL1        0.2257
     19 O         146.7399  141.0096  155.3849 O.2     1  UNL1       -0.4233
     20 C         150.5335  141.7094  154.8892 C.3     1  UNL1        0.0103
     21 C         149.1136  141.7552  154.4080 C.3     1  UNL1        0.0870
     22 C         137.7002  139.9455  163.6198 C.3     1  UNL1        0.0420
     23 C         138.5951  139.9563  164.8236 C.3     1  UNL1        0.0585
     24 C         138.2435  139.4421  166.1881 C.3     1  UNL1        0.0175
     25 C         139.4297  139.6512  167.0820 C.3     1  UNL1        0.0199
     26 C         140.5144  140.2946  166.2700 C.3     1  UNL1        0.0855
     27 N         139.9986  140.4832  164.8742 N.3     1  UNL1       -0.2971
     28 H         140.5849  139.9698  164.2162 H       1  UNL1        0.1233
     29 C         141.8759  140.6815  166.7666 C.3     1  UNL1        0.1470
     30 O         142.0766  141.0275  168.2123 O.3     1  UNL1       -0.3787
     31 H         143.0077  141.2527  168.3646 H       1  UNL1        0.2108
     32 C         143.0367  140.7224  165.8175 C.ar    1  UNL1        0.0055
     33 C         143.6150  139.4452  165.2843 C.ar    1  UNL1       -0.0019
     34 C         144.7758  139.4862  164.3351 C.ar    1  UNL1       -0.0002
     35 C         145.3583  140.8044  163.9192 C.ar    1  UNL1       -0.0000
     36 C         144.7800  142.0816  164.4524 C.ar    1  UNL1       -0.0002
     37 C         143.6192  142.0406  165.4015 C.ar    1  UNL1       -0.0019
@<TRIPOS>BOND
     1    20    21    1
     2    21    15    1
     3    15    16   ar
     4    16    17   ar
     5    17    18   ar
     6     7    18    1
     7     7     8    1
     8     8     9    1
     9     9    10    1
    10    10    11   am
    11    11    12    2
    12    11     1    1
    13     1     2   ar
    14     2     3   ar
    15     3     4   ar
    16     4    22    1
    17    23    22    1
    18    23    24    1
    19    24    25    1
    20    26    25    1
    21    26    29    1
    22    29    30    1
    23    29    32    1
    24    32    33   ar
    25    33    34   ar
    26    34    35   ar
    27    35    36   ar
    28    36    37   ar
    29    26    27    1
    30     4     5   ar
    31     5     6   ar
    32    10    13    1
    33    14    13    1
    34    18    19   ar
    35    19    15   ar
    36    14     7    1
    37    14     8    1
    38     6     1   ar
    39    27    23    1
    40    37    32   ar
    41    30    31    1
    42    27    28    1
@<TRIPOS>MOLECULE
*****
 37 42 0 0 0
SMALL
GASTEIGER

@<TRIPOS>ATOM
      1 C         143.3547  142.0271  157.8067 C.ar    1  UNL1        0.0536
      2 C         144.0835  141.9730  159.1166 C.ar    1  UNL1        0.0042
      3 C         143.5930  142.7804  160.2817 C.ar    1  UNL1       -0.0041
      4 C         142.3736  143.6418  160.1370 C.ar    1  UNL1       -0.0208
      5 C         141.6447  143.6958  158.8271 C.ar    1  UNL1       -0.0041
      6 C         142.1352  142.8885  157.6619 C.ar    1  UNL1        0.0042
      7 C         142.9715  136.1906  156.4710 C.3     1  UNL1        0.0816
      8 C         143.5510  137.4300  155.8561 C.3     1  UNL1        0.0308
      9 C         144.0158  138.8102  155.4969 C.3     1  UNL1        0.0942
     10 N         143.5886  139.7427  156.5914 N.am    1  UNL1       -0.2761
     11 C         143.8452  141.2197  156.6416 C.2     1  UNL1        0.2490
     12 O         144.5923  141.8894  155.5265 O.2     1  UNL1       -0.2699
     13 C         142.8597  138.9388  157.6271 C.3     1  UNL1        0.0942
     14 C         142.8364  137.5095  157.1726 C.3     1  UNL1        0.0308
     15 C         142.8861  132.3260  156.8222 C.ar    1  UNL1        0.2261
     16 N         141.7539  132.5553  155.8653 N.ar    1  UNL1       -0.1117
     17 N         141.6481  134.0308  155.6173 N.ar    1  UNL1       -0.1117
     18 C         142.7149  134.7136  156.4209 C.ar    1  UNL1        0.2257
     19 O         143.4800  133.6600  157.1655 O.2     1  UNL1       -0.4233
     20 C         143.6173  129.8706  156.3914 C.3     1  UNL1        0.0103
     21 C         143.3440  130.9965  157.3440 C.3     1  UNL1        0.0870
     22 C         141.8831  144.4492  161.3022 C.3     1  UNL1        0.0420
     23 C         140.5857  144.0954  161.9666 C.3     1  UNL1        0.0585
     24 C         139.4451  145.0335  162.2292 C.3     1  UNL1        0.0175
     25 C         138.3555  144.2594  162.9100 C.3     1  UNL1        0.0199
     26 C         138.8227  142.8428  163.0682 C.3     1  UNL1        0.0855
     27 N         140.2010  142.7415  162.4851 N.3     1  UNL1       -0.2971
     28 H         140.2052  142.0646  161.7220 H       1  UNL1        0.1233
     29 C         138.0476  141.7240  163.6986 C.3     1  UNL1        0.1470
     30 O         136.7890  141.2260  163.0522 O.3     1  UNL1       -0.3787
     31 H         136.4152  140.5063  163.5843 H       1  UNL1        0.2108
     32 C         138.5312  141.1031  164.9757 C.ar    1  UNL1        0.0055
     33 C         139.5304  141.8258  165.8297 C.ar    1  UNL1       -0.0019
     34 C         140.0140  141.2049  167.1067 C.ar    1  UNL1       -0.0002
     35 C         139.4983  139.8613  167.5296 C.ar    1  UNL1       -0.0000
     36 C         138.4992  139.1387  166.6756 C.ar    1  UNL1       -0.0002
     37 C         138.0156  139.7596  165.3986 C.ar    1  UNL1       -0.0019
@<TRIPOS>BOND
     1    20    21    1
     2    21    15    1
     3    15    16   ar
     4    16    17   ar
     5    17    18   ar
     6     7    18    1
     7     7     8    1
     8     8     9    1
     9     9    10    1
    10    10    11   am
    11    11    12    2
    12    11     1    1
    13     1     2   ar
    14     2     3   ar
    15     3     4   ar
    16     4    22    1
    17    23    22    1
    18    23    24    1
    19    24    25    1
    20    26    25    1
    21    26    29    1
    22    29    30    1
    23    29    32    1
    24    32    33   ar
    25    33    34   ar
    26    34    35   ar
    27    35    36   ar
    28    36    37   ar
    29    26    27    1
    30     4     5   ar
    31     5     6   ar
    32    10    13    1
    33    14    13    1
    34    18    19   ar
    35    19    15   ar
    36    14     7    1
    37    14     8    1
    38     6     1   ar
    39    27    23    1
    40    37    32   ar
    41    30    31    1
    42    27    28    1
@<TRIPOS>MOLECULE
*****
 37 42 0 0 0
SMALL
GASTEIGER

@<TRIPOS>ATOM
      1 C         139.2676  139.0522  159.5640 C.ar    1  UNL1        0.0536
      2 C         140.3447  138.3629  160.3479 C.ar    1  UNL1        0.0042
      3 C         140.1299  138.0441  161.7978 C.ar    1  UNL1       -0.0041
      4 C         138.8380  138.4147  162.4639 C.ar    1  UNL1       -0.0208
      5 C         137.7608  139.1040  161.6798 C.ar    1  UNL1       -0.0041
      6 C         137.9756  139.4228  160.2299 C.ar    1  UNL1        0.0042
      7 C         139.5488  144.2327  156.5510 C.3     1  UNL1        0.0816
      8 C         139.6503  142.7680  156.2440 C.3     1  UNL1        0.0308
      9 C         139.7049  141.2690  156.2451 C.3     1  UNL1        0.0942
     10 N         139.5019  140.7989  157.6550 N.am    1  UNL1       -0.2761
     11 C         139.4824  139.3710  158.1141 C.2     1  UNL1        0.2490
     12 O         139.6777  138.2618  157.1233 O.2     1  UNL1       -0.2699
     13 C         139.3219  142.0073  158.5252 C.3     1  UNL1        0.0942
     14 C         139.4136  143.2243  157.6531 C.3     1  UNL1        0.0308
     15 C         139.1029  148.0364  155.9193 C.ar    1  UNL1        0.2261
     16 N         140.0939  147.6794  154.8514 N.ar    1  UNL1       -0.1117
     17 N         140.3816  146.2111  154.9580 N.ar    1  UNL1       -0.1117
     18 C         139.5684  145.6606  156.0919 C.ar    1  UNL1        0.2257
     19 O         138.7781  146.7886  156.6859 O.2     1  UNL1       -0.4233
     20 C         138.1587  149.8070  157.5694 C.3     1  UNL1        0.0103
     21 C         138.5362  149.4013  156.1756 C.3     1  UNL1        0.0870
     22 C         138.6232  138.0959  163.9138 C.3     1  UNL1        0.0420
     23 C         139.0658  139.0662  164.9685 C.3     1  UNL1        0.0585
     24 C         138.7504  138.9815  166.4325 C.3     1  UNL1        0.0175
     25 C         139.3911  140.1545  167.1133 C.3     1  UNL1        0.0199
     26 C         140.1025  140.9642  166.0701 C.3     1  UNL1        0.0855
     27 N         139.9015  140.2915  164.7445 N.3     1  UNL1       -0.2971
     28 H         140.8042  140.0274  164.3499 H       1  UNL1        0.1233
     29 C         140.8788  142.2250  166.3103 C.3     1  UNL1        0.1470
     30 O         141.0649  143.2145  165.1985 O.3     1  UNL1       -0.3787
     31 H         141.5859  143.9671  165.5193 H       1  UNL1        0.2108
     32 C         141.4689  142.4964  167.6624 C.ar    1  UNL1        0.0055
     33 C         142.9059  142.1630  167.9343 C.ar    1  UNL1       -0.0019
     34 C         143.4959  142.4344  169.2864 C.ar    1  UNL1       -0.0002
     35 C         142.6489  143.0391  170.3667 C.ar    1  UNL1       -0.0000
     36 C         141.2120  143.3724  170.0948 C.ar    1  UNL1       -0.0002
     37 C         140.6219  143.1011  168.7427 C.ar    1  UNL1       -0.0019
@<TRIPOS>BOND
     1    20    21    1
     2    21    15    1
     3    15    16   ar
     4    16    17   ar
     5    17    18   ar
     6     7    18    1
     7     7     8    1
     8     8     9    1
     9     9    10    1
    10    10    11   am
    11    11    12    2
    12    11     1    1
    13     1     2   ar
    14     2     3   ar
    15     3     4   ar
    16     4    22    1
    17    23    22    1
    18    23    24    1
    19    24    25    1
    20    26    25    1
    21    26    29    1
    22    29    30    1
    23    29    32    1
    24    32    33   ar
    25    33    34   ar
    26    34    35   ar
    27    35    36   ar
    28    36    37   ar
    29    26    27    1
    30     4     5   ar
    31     5     6   ar
    32    10    13    1
    33    14    13    1
    34    18    19   ar
    35    19    15   ar
    36    14     7    1
    37    14     8    1
    38     6     1   ar
    39    27    23    1
    40    37    32   ar
    41    30    31    1
    42    27    28    1
@<TRIPOS>MOLECULE
*****
 37 42 0 0 0
SMALL
GASTEIGER

@<TRIPOS>ATOM
      1 C         142.8400  141.1625  156.8810 C.ar    1  UNL1        0.0536
      2 C         143.6781  141.7913  157.9543 C.ar    1  UNL1        0.0042
      3 C         143.0457  142.7074  158.9597 C.ar    1  UNL1       -0.0041
      4 C         141.5750  142.9947  158.8917 C.ar    1  UNL1       -0.0208
      5 C         140.7368  142.3658  157.8183 C.ar    1  UNL1       -0.0041
      6 C         141.3693  141.4497  156.8130 C.ar    1  UNL1        0.0042
      7 C         143.4111  135.1955  156.6296 C.3     1  UNL1        0.0816
      8 C         143.7971  136.3795  155.7935 C.3     1  UNL1        0.0308
      9 C         144.0431  137.7281  155.1846 C.3     1  UNL1        0.0942
     10 N         143.4545  138.7629  156.0971 N.am    1  UNL1       -0.2761
     11 C         143.4725  140.2464  155.8757 C.2     1  UNL1        0.2490
     12 O         144.1230  140.8138  154.6489 O.2     1  UNL1       -0.2699
     13 C         142.8446  138.0539  157.2698 C.3     1  UNL1        0.0942
     14 C         143.0564  136.5808  157.0822 C.3     1  UNL1        0.0308
     15 C         144.0124  131.4774  157.5679 C.ar    1  UNL1        0.2261
     16 N         142.7183  131.3809  156.8154 N.ar    1  UNL1       -0.1117
     17 N         142.3356  132.7619  156.3724 N.ar    1  UNL1       -0.1117
     18 C         143.3931  133.7120  156.8510 C.ar    1  UNL1        0.2257
     19 O         144.4293  132.9182  157.5898 O.2     1  UNL1       -0.4233
     20 C         144.0858  129.0043  158.3602 C.3     1  UNL1        0.0103
     21 C         144.7584  130.3341  158.1892 C.3     1  UNL1        0.0870
     22 C         140.9425  143.9108  159.8971 C.3     1  UNL1        0.0420
     23 C         140.3477  143.3487  161.1541 C.3     1  UNL1        0.0585
     24 C         140.8057  143.6389  162.5526 C.3     1  UNL1        0.0175
     25 C         139.9315  142.8672  163.4961 C.3     1  UNL1        0.0199
     26 C         138.9332  142.1001  162.6808 C.3     1  UNL1        0.0855
     27 N         139.1904  142.3976  161.2332 N.3     1  UNL1       -0.2971
     28 H         138.3632  142.8235  160.8151 H       1  UNL1        0.1233
     29 C         137.8652  141.1944  163.2185 C.3     1  UNL1        0.1470
     30 O         136.4192  141.5466  163.0319 O.3     1  UNL1       -0.3787
     31 H         135.8646  140.8609  163.4359 H       1  UNL1        0.2108
     32 C         138.2434  139.9364  163.9427 C.ar    1  UNL1        0.0055
     33 C         138.6637  138.7225  163.1683 C.ar    1  UNL1       -0.0019
     34 C         139.0418  137.4645  163.8926 C.ar    1  UNL1       -0.0002
     35 C         138.9996  137.4205  165.3914 C.ar    1  UNL1       -0.0000
     36 C         138.5792  138.6344  166.1658 C.ar    1  UNL1       -0.0002
     37 C         138.2011  139.8923  165.4415 C.ar    1  UNL1       -0.0019
@<TRIPOS>BOND
     1    20    21    1
     2    21    15    1
     3    15    16   ar
     4    16    17   ar
     5    17    18   ar
     6     7    18    1
     7     7     8    1
     8     8     9    1
     9     9    10    1
    10    10    11   am
    11    11    12    2
    12    11     1    1
    13     1     2   ar
    14     2     3   ar
    15     3     4   ar
    16     4    22    1
    17    23    22    1
    18    23    24    1
    19    24    25    1
    20    26    25    1
    21    26    29    1
    22    29    30    1
    23    29    32    1
    24    32    33   ar
    25    33    34   ar
    26    34    35   ar
    27    35    36   ar
    28    36    37   ar
    29    26    27    1
    30     4     5   ar
    31     5     6   ar
    32    10    13    1
    33    14    13    1
    34    18    19   ar
    35    19    15   ar
    36    14     7    1
    37    14     8    1
    38     6     1   ar
    39    27    23    1
    40    37    32   ar
    41    30    31    1
    42    27    28    1
