@<TRIPOS>MOLECULE
*****
 38 42 0 0 0
SMALL
GASTEIGER

@<TRIPOS>ATOM
      1 C         139.5557  138.4190  160.7951 C.3     1  UNL1        0.2358
      2 C         140.9551  138.4939  160.2601 C.3     1  UNL1        0.1700
      3 O         141.1982  138.9748  158.8602 O.3     1  UNL1       -0.3793
      4 H         140.3510  139.1951  158.4424 H       1  UNL1        0.2106
      5 C         142.1114  138.0878  161.1249 C.3     1  UNL1        0.1056
      6 N         142.2198  138.6110  162.5266 N.3     1  UNL1       -0.2703
      7 C         142.1493  137.6644  163.6880 C.3     1  UNL1        0.0758
      8 C         142.2577  138.1876  165.0896 C.3     1  UNL1        0.0577
      9 C         142.4364  139.6574  165.3297 C.3     1  UNL1        0.1399
     10 C         142.5069  140.6040  164.1683 C.3     1  UNL1        0.0577
     11 C         142.3985  140.0808  162.7668 C.3     1  UNL1        0.0758
     12 C         142.6165  141.0936  165.7233 C.3     1  UNL1        0.0695
     13 C         142.6751  141.1601  167.2207 C.ar    1  UNL1        0.0161
     14 C         142.8409  142.3108  168.1686 C.ar    1  UNL1        0.0102
     15 C         142.8628  142.0663  169.6484 C.ar    1  UNL1        0.0576
     16 CL        143.0285  143.2170  170.5963 Cl      1  UNL1       -0.0823
     17 C         142.7189  140.6713  170.1803 C.ar    1  UNL1        0.0145
     18 C         142.5531  139.5205  169.2324 C.ar    1  UNL1        0.0374
     19 C         142.5312  139.7650  167.7526 C.ar    1  UNL1        0.1343
     20 O         142.3837  138.8363  166.5840 O.3     1  UNL1       -0.4825
     21 O         138.8210  139.6771  161.1520 O.3     1  UNL1       -0.4725
     22 C         138.6974  141.6152  162.8778 C.ar    1  UNL1        0.0897
     23 C         138.6657  142.0870  164.3013 C.ar    1  UNL1        0.0107
     24 C         138.7260  141.0924  165.4226 C.ar    1  UNL1        0.0370
     25 C         138.8180  139.6261  165.1204 C.ar    1  UNL1        0.1367
     26 O         138.8783  138.6316  166.2416 O.3     1  UNL1       -0.5054
     27 C         138.8496  139.1543  163.6968 C.ar    1  UNL1        0.0736
     28 C         138.7893  140.1488  162.5755 C.ar    1  UNL1        0.1461
     29 H         138.8585  138.9263  167.1308 H       1  UNL1        0.2922
     30 O         137.4222  142.6784  160.8794 O.2     1  UNL1       -0.2677
     31 C         138.6371  142.6098  161.7566 C.2     1  UNL1        0.2742
     32 N         139.7917  143.5357  161.5124 N.am    1  UNL1       -0.1620
     33 C         141.0659  143.5833  162.3023 C.3     1  UNL1        0.1561
     34 C         141.9365  144.6536  161.7136 C.3     1  UNL1        0.1648
     35 O         143.3033  145.0418  162.1943 O.3     1  UNL1       -0.3800
     36 C         141.2003  145.2674  160.5598 C.3     1  UNL1        0.2022
     37 O         139.8747  144.5765  160.4355 O.3     1  UNL1       -0.2601
     38 H         143.6486  145.7601  161.6413 H       1  UNL1        0.2105
@<TRIPOS>BOND
     1    30    31    2
     2    31    22    1
     3    22    23   ar
     4    23    24   ar
     5    24    25   ar
     6    25    26    1
     7    25    27   ar
     8    27    28   ar
     9    28    21    1
    10    21     1    1
    11     1     2    1
    12     2     3    1
    13     2     5    1
    14     5     6    1
    15     6     7    1
    16     7     8    1
    17     8     9    1
    18     9    10    1
    19    10    11    1
    20     9    12    1
    21    12    13    1
    22    13    14   ar
    23    14    15   ar
    24    15    16    1
    25    15    17   ar
    26    17    18   ar
    27    18    19   ar
    28    19    20    1
    29    31    32   am
    30    32    33    1
    31    33    34    1
    32    34    35    1
    33    34    36    1
    34    36    37    1
    35    28    22   ar
    36    11     6    1
    37    19    13   ar
    38    37    32    1
    39    20     9    1
    40    26    29    1
    41     3     4    1
    42    35    38    1
@<TRIPOS>MOLECULE
*****
 38 42 0 0 0
SMALL
GASTEIGER

@<TRIPOS>ATOM
      1 C         141.7943  139.7900  160.2049 C.3     1  UNL1        0.2358
      2 C         142.6218  138.5430  160.1028 C.3     1  UNL1        0.1700
      3 O         143.1639  138.1095  158.7730 O.3     1  UNL1       -0.3793
      4 H         142.8890  138.7413  158.0902 H       1  UNL1        0.2106
      5 C         142.9073  137.7297  161.3303 C.3     1  UNL1        0.1056
      6 N         142.4942  138.2381  162.6798 N.3     1  UNL1       -0.2703
      7 C         141.0772  138.0717  163.1424 C.3     1  UNL1        0.0758
      8 C         140.6642  138.5801  164.4918 C.3     1  UNL1        0.0577
      9 C         141.6683  139.2551  165.3785 C.3     1  UNL1        0.1399
     10 C         143.0854  139.4215  164.9158 C.3     1  UNL1        0.0577
     11 C         143.4984  138.9131  163.5664 C.3     1  UNL1        0.0758
     12 C         142.5565  139.9470  166.3697 C.3     1  UNL1        0.0695
     13 C         141.7317  140.2804  167.5775 C.ar    1  UNL1        0.0161
     14 C         142.0729  140.9637  168.8685 C.ar    1  UNL1        0.0102
     15 C         141.0163  141.1611  169.9147 C.ar    1  UNL1        0.0576
     16 CL        141.3576  141.8443  171.2057 Cl      1  UNL1       -0.0823
     17 C         139.6185  140.6753  169.6700 C.ar    1  UNL1        0.0145
     18 C         139.2771  139.9921  168.3789 C.ar    1  UNL1        0.0374
     19 C         140.3337  139.7946  167.3327 C.ar    1  UNL1        0.1343
     20 O         140.2946  139.1609  165.9737 O.3     1  UNL1       -0.4825
     21 O         142.4359  141.1331  160.0198 O.3     1  UNL1       -0.4725
     22 C         142.2776  142.8973  161.9206 C.ar    1  UNL1        0.0897
     23 C         142.8927  143.6025  163.0928 C.ar    1  UNL1        0.0107
     24 C         144.2813  143.2490  163.5366 C.ar    1  UNL1        0.0370
     25 C         145.0547  142.1901  162.8082 C.ar    1  UNL1        0.1367
     26 O         146.4432  141.8365  163.2520 O.3     1  UNL1       -0.5054
     27 C         144.4396  141.4848  161.6359 C.ar    1  UNL1        0.0736
     28 C         143.0510  141.8384  161.1921 C.ar    1  UNL1        0.1461
     29 H         146.8275  142.2771  163.9843 H       1  UNL1        0.2922
     30 O         140.6862  144.1556  160.2976 O.2     1  UNL1       -0.2677
     31 C         140.8891  143.2509  161.4768 C.2     1  UNL1        0.2742
     32 N         139.7035  142.6998  162.2120 N.am    1  UNL1       -0.1620
     33 C         139.7500  141.7881  163.4023 C.3     1  UNL1        0.1561
     34 C         138.3386  141.4884  163.8120 C.3     1  UNL1        0.1648
     35 O         137.9195  140.6155  164.9577 O.3     1  UNL1       -0.3800
     36 C         137.4197  142.2149  162.8750 C.3     1  UNL1        0.2022
     37 O         138.2633  142.9635  161.8862 O.3     1  UNL1       -0.2601
     38 H         136.9511  140.5882  165.0059 H       1  UNL1        0.2105
@<TRIPOS>BOND
     1    30    31    2
     2    31    22    1
     3    22    23   ar
     4    23    24   ar
     5    24    25   ar
     6    25    26    1
     7    25    27   ar
     8    27    28   ar
     9    28    21    1
    10    21     1    1
    11     1     2    1
    12     2     3    1
    13     2     5    1
    14     5     6    1
    15     6     7    1
    16     7     8    1
    17     8     9    1
    18     9    10    1
    19    10    11    1
    20     9    12    1
    21    12    13    1
    22    13    14   ar
    23    14    15   ar
    24    15    16    1
    25    15    17   ar
    26    17    18   ar
    27    18    19   ar
    28    19    20    1
    29    31    32   am
    30    32    33    1
    31    33    34    1
    32    34    35    1
    33    34    36    1
    34    36    37    1
    35    28    22   ar
    36    11     6    1
    37    19    13   ar
    38    37    32    1
    39    20     9    1
    40    26    29    1
    41     3     4    1
    42    35    38    1
@<TRIPOS>MOLECULE
*****
 38 42 0 0 0
SMALL
GASTEIGER

@<TRIPOS>ATOM
      1 C         141.0777  143.4383  160.6102 C.3     1  UNL1        0.2358
      2 C         141.1615  144.9079  160.8987 C.3     1  UNL1        0.1700
      3 O         141.5765  145.8618  159.8180 O.3     1  UNL1       -0.3793
      4 H         141.7530  145.3686  159.0016 H       1  UNL1        0.2106
      5 C         140.8304  145.4236  162.2677 C.3     1  UNL1        0.1056
      6 N         140.9013  144.5060  163.4523 N.3     1  UNL1       -0.2703
      7 C         139.7115  144.3497  164.3522 C.3     1  UNL1        0.0758
      8 C         139.7825  143.4322  165.5367 C.3     1  UNL1        0.0577
      9 C         141.0432  142.6709  165.8212 C.3     1  UNL1        0.1399
     10 C         142.2330  142.8271  164.9212 C.3     1  UNL1        0.0577
     11 C         142.1621  143.7447  163.7368 C.3     1  UNL1        0.0758
     12 C         142.2295  141.8489  166.2299 C.3     1  UNL1        0.0695
     13 C         141.8598  141.0841  167.4663 C.ar    1  UNL1        0.0161
     14 C         142.6286  140.1148  168.3145 C.ar    1  UNL1        0.0102
     15 C         141.9826  139.4949  169.5179 C.ar    1  UNL1        0.0576
     16 CL        142.7515  138.5256  170.3660 Cl      1  UNL1       -0.0823
     17 C         140.5679  139.8442  169.8733 C.ar    1  UNL1        0.0145
     18 C         139.7990  140.8135  169.0251 C.ar    1  UNL1        0.0374
     19 C         140.4449  141.4335  167.8217 C.ar    1  UNL1        0.1343
     20 O         139.9403  142.4141  166.8050 O.3     1  UNL1       -0.4825
     21 O         142.2869  142.7006  160.1168 O.3     1  UNL1       -0.4725
     22 C         142.5324  140.4537  161.3979 C.ar    1  UNL1        0.0897
     23 C         143.3033  139.5681  162.3313 C.ar    1  UNL1        0.0107
     24 C         144.5997  140.0437  162.9171 C.ar    1  UNL1        0.0370
     25 C         145.1252  141.4049  162.5695 C.ar    1  UNL1        0.1367
     26 O         146.4216  141.8806  163.1552 O.3     1  UNL1       -0.5054
     27 C         144.3542  142.2906  161.6360 C.ar    1  UNL1        0.0736
     28 C         143.0579  141.8150  161.0502 C.ar    1  UNL1        0.1461
     29 H         146.9031  141.3273  163.7383 H       1  UNL1        0.2922
     30 O         141.2032  139.4131  159.4229 O.2     1  UNL1       -0.2677
     31 C         141.2360  139.9781  160.8121 C.2     1  UNL1        0.2742
     32 N         139.9724  140.0675  161.6154 N.am    1  UNL1       -0.1620
     33 C         139.8506  140.6061  163.0101 C.3     1  UNL1        0.1561
     34 C         138.4117  140.5055  163.4218 C.3     1  UNL1        0.1648
     35 O         137.8405  140.9309  164.7419 O.3     1  UNL1       -0.3800
     36 C         137.6442  139.9046  162.2815 C.3     1  UNL1        0.2022
     37 O         138.6088  139.6340  161.1652 O.3     1  UNL1       -0.2601
     38 H         136.8860  140.7583  164.7519 H       1  UNL1        0.2105
@<TRIPOS>BOND
     1    30    31    2
     2    31    22    1
     3    22    23   ar
     4    23    24   ar
     5    24    25   ar
     6    25    26    1
     7    25    27   ar
     8    27    28   ar
     9    28    21    1
    10    21     1    1
    11     1     2    1
    12     2     3    1
    13     2     5    1
    14     5     6    1
    15     6     7    1
    16     7     8    1
    17     8     9    1
    18     9    10    1
    19    10    11    1
    20     9    12    1
    21    12    13    1
    22    13    14   ar
    23    14    15   ar
    24    15    16    1
    25    15    17   ar
    26    17    18   ar
    27    18    19   ar
    28    19    20    1
    29    31    32   am
    30    32    33    1
    31    33    34    1
    32    34    35    1
    33    34    36    1
    34    36    37    1
    35    28    22   ar
    36    11     6    1
    37    19    13   ar
    38    37    32    1
    39    20     9    1
    40    26    29    1
    41     3     4    1
    42    35    38    1
@<TRIPOS>MOLECULE
*****
 38 42 0 0 0
SMALL
GASTEIGER

@<TRIPOS>ATOM
      1 C         140.0388  143.7496  160.0070 C.3     1  UNL1        0.2358
      2 C         140.8343  144.8955  160.5585 C.3     1  UNL1        0.1700
      3 O         141.9204  145.5202  159.7337 O.3     1  UNL1       -0.3793
      4 H         141.9768  145.0680  158.8775 H       1  UNL1        0.2106
      5 C         140.5436  145.4168  161.9346 C.3     1  UNL1        0.1056
      6 N         140.6702  144.5095  163.1225 N.3     1  UNL1       -0.2703
      7 C         139.5778  144.4615  164.1492 C.3     1  UNL1        0.0758
      8 C         139.7043  143.5543  165.3370 C.3     1  UNL1        0.0577
      9 C         140.9233  142.6951  165.4981 C.3     1  UNL1        0.1399
     10 C         142.0158  142.7432  164.4714 C.3     1  UNL1        0.0577
     11 C         141.8892  143.6504  163.2836 C.3     1  UNL1        0.0758
     12 C         142.0774  141.7831  165.7919 C.3     1  UNL1        0.0695
     13 C         141.7854  141.0649  167.0762 C.ar    1  UNL1        0.0161
     14 C         142.5622  140.0451  167.8549 C.ar    1  UNL1        0.0102
     15 C         142.0046  139.4936  169.1336 C.ar    1  UNL1        0.0576
     16 CL        142.7814  138.4738  169.9123 Cl      1  UNL1       -0.0823
     17 C         140.6701  139.9618  169.6334 C.ar    1  UNL1        0.0145
     18 C         139.8932  140.9816  168.8546 C.ar    1  UNL1        0.0374
     19 C         140.4508  141.5332  167.5760 C.ar    1  UNL1        0.1343
     20 O         139.9181  142.5407  166.6007 O.3     1  UNL1       -0.4825
     21 O         140.4982  142.3398  160.2338 O.3     1  UNL1       -0.4725
     22 C         140.5179  140.2623  161.7939 C.ar    1  UNL1        0.0897
     23 C         139.8525  139.4155  162.8379 C.ar    1  UNL1        0.0107
     24 C         138.5020  139.7992  163.3659 C.ar    1  UNL1        0.0370
     25 C         137.8169  141.0298  162.8499 C.ar    1  UNL1        0.1367
     26 O         136.4663  141.4135  163.3780 O.3     1  UNL1       -0.5054
     27 C         138.4823  141.8767  161.8059 C.ar    1  UNL1        0.0736
     28 C         139.8328  141.4930  161.2778 C.ar    1  UNL1        0.1461
     29 H         136.0507  140.8845  164.0302 H       1  UNL1        0.2922
     30 O         143.1028  140.2115  162.0505 O.2     1  UNL1       -0.2677
     31 C         141.8684  139.8786  161.2658 C.2     1  UNL1        0.2742
     32 N         141.9846  139.1620  159.9532 N.am    1  UNL1       -0.1620
     33 C         140.8456  138.7646  159.0618 C.3     1  UNL1        0.1561
     34 C         141.4172  138.0740  157.8592 C.3     1  UNL1        0.1648
     35 O         140.6340  137.5116  156.7102 O.3     1  UNL1       -0.3800
     36 C         142.9097  138.0446  158.0073 C.3     1  UNL1        0.2022
     37 O         143.2603  138.7171  159.3015 O.3     1  UNL1       -0.2601
     38 H         141.2429  137.1190  156.0652 H       1  UNL1        0.2105
@<TRIPOS>BOND
     1    30    31    2
     2    31    22    1
     3    22    23   ar
     4    23    24   ar
     5    24    25   ar
     6    25    26    1
     7    25    27   ar
     8    27    28   ar
     9    28    21    1
    10    21     1    1
    11     1     2    1
    12     2     3    1
    13     2     5    1
    14     5     6    1
    15     6     7    1
    16     7     8    1
    17     8     9    1
    18     9    10    1
    19    10    11    1
    20     9    12    1
    21    12    13    1
    22    13    14   ar
    23    14    15   ar
    24    15    16    1
    25    15    17   ar
    26    17    18   ar
    27    18    19   ar
    28    19    20    1
    29    31    32   am
    30    32    33    1
    31    33    34    1
    32    34    35    1
    33    34    36    1
    34    36    37    1
    35    28    22   ar
    36    11     6    1
    37    19    13   ar
    38    37    32    1
    39    20     9    1
    40    26    29    1
    41     3     4    1
    42    35    38    1
@<TRIPOS>MOLECULE
*****
 38 42 0 0 0
SMALL
GASTEIGER

@<TRIPOS>ATOM
      1 C         140.5063  139.6020  159.2644 C.3     1  UNL1        0.2358
      2 C         139.1149  139.3151  159.7457 C.3     1  UNL1        0.1700
      3 O         137.9358  139.8834  159.0130 O.3     1  UNL1       -0.3793
      4 H         138.2462  140.4079  158.2583 H       1  UNL1        0.2106
      5 C         138.9025  138.4601  160.9596 C.3     1  UNL1        0.1056
      6 N         139.1106  139.0364  162.3288 N.3     1  UNL1       -0.2703
      7 C         138.9114  138.1776  163.5423 C.3     1  UNL1        0.0758
      8 C         139.1195  138.7540  164.9114 C.3     1  UNL1        0.0577
      9 C         139.5270  140.1892  165.0669 C.3     1  UNL1        0.1399
     10 C         139.7263  141.0480  163.8534 C.3     1  UNL1        0.0577
     11 C         139.5181  140.4716  162.4844 C.3     1  UNL1        0.0758
     12 C         139.9327  141.5995  165.3775 C.3     1  UNL1        0.0695
     13 C         140.0225  141.7384  166.8685 C.ar    1  UNL1        0.0161
     14 C         140.3779  142.8998  167.7487 C.ar    1  UNL1        0.0102
     15 C         140.3830  142.7367  169.2398 C.ar    1  UNL1        0.0576
     16 CL        140.7384  143.8981  170.1201 Cl      1  UNL1       -0.0823
     17 C         140.0327  141.4123  169.8507 C.ar    1  UNL1        0.0145
     18 C         139.6773  140.2509  168.9704 C.ar    1  UNL1        0.0374
     19 C         139.6721  140.4139  167.4793 C.ar    1  UNL1        0.1343
     20 O         139.3659  139.4565  166.3659 O.3     1  UNL1       -0.4825
     21 O         141.1369  140.9340  159.5438 O.3     1  UNL1       -0.4725
     22 C         142.9375  142.3593  160.7589 C.ar    1  UNL1        0.0897
     23 C         144.1412  142.4472  161.6496 C.ar    1  UNL1        0.0107
     24 C         144.7479  141.1978  162.2160 C.ar    1  UNL1        0.0370
     25 C         144.1510  139.8604  161.8917 C.ar    1  UNL1        0.1367
     26 O         144.7577  138.6110  162.4582 O.3     1  UNL1       -0.5054
     27 C         142.9473  139.7725  161.0009 C.ar    1  UNL1        0.0736
     28 C         142.3405  141.0219  160.4345 C.ar    1  UNL1        0.1461
     29 H         145.5096  138.6660  163.0146 H       1  UNL1        0.2922
     30 O         142.6779  144.0466  158.8003 O.2     1  UNL1       -0.2677
     31 C         142.3308  143.6087  160.1924 C.2     1  UNL1        0.2742
     32 N         141.3770  144.4202  161.0180 N.am    1  UNL1       -0.1620
     33 C         140.9376  144.1091  162.4180 C.3     1  UNL1        0.1561
     34 C         139.9841  145.1819  162.8538 C.3     1  UNL1        0.1648
     35 O         139.3005  145.2658  164.1864 O.3     1  UNL1       -0.3800
     36 C         139.8342  146.1561  161.7231 C.3     1  UNL1        0.2022
     37 O         140.6950  145.6853  160.5885 O.3     1  UNL1       -0.2601
     38 H         138.7374  146.0552  164.2118 H       1  UNL1        0.2105
@<TRIPOS>BOND
     1    30    31    2
     2    31    22    1
     3    22    23   ar
     4    23    24   ar
     5    24    25   ar
     6    25    26    1
     7    25    27   ar
     8    27    28   ar
     9    28    21    1
    10    21     1    1
    11     1     2    1
    12     2     3    1
    13     2     5    1
    14     5     6    1
    15     6     7    1
    16     7     8    1
    17     8     9    1
    18     9    10    1
    19    10    11    1
    20     9    12    1
    21    12    13    1
    22    13    14   ar
    23    14    15   ar
    24    15    16    1
    25    15    17   ar
    26    17    18   ar
    27    18    19   ar
    28    19    20    1
    29    31    32   am
    30    32    33    1
    31    33    34    1
    32    34    35    1
    33    34    36    1
    34    36    37    1
    35    28    22   ar
    36    11     6    1
    37    19    13   ar
    38    37    32    1
    39    20     9    1
    40    26    29    1
    41     3     4    1
    42    35    38    1
@<TRIPOS>MOLECULE
*****
 38 42 0 0 0
SMALL
GASTEIGER

@<TRIPOS>ATOM
      1 C         142.7737  138.4126  159.8061 C.3     1  UNL1        0.2358
      2 C         141.3096  138.4390  159.4805 C.3     1  UNL1        0.1700
      3 O         140.8600  138.4815  158.0501 O.3     1  UNL1       -0.3793
      4 H         141.6355  138.4871  157.4675 H       1  UNL1        0.2106
      5 C         140.2952  138.4230  160.5854 C.3     1  UNL1        0.1056
      6 N         140.6851  138.8552  161.9679 N.3     1  UNL1       -0.2703
      7 C         141.0739  137.8308  162.9923 C.3     1  UNL1        0.0758
      8 C         141.4637  138.2631  164.3747 C.3     1  UNL1        0.0577
      9 C         141.4648  139.7198  164.7327 C.3     1  UNL1        0.1399
     10 C         141.0760  140.7441  163.7083 C.3     1  UNL1        0.0577
     11 C         140.6862  140.3119  162.3259 C.3     1  UNL1        0.0758
     12 C         141.5128  141.1327  165.2340 C.3     1  UNL1        0.0695
     13 C         141.9528  141.1012  166.6678 C.ar    1  UNL1        0.0161
     14 C         142.1785  142.1917  167.6726 C.ar    1  UNL1        0.0102
     15 C         142.6280  141.8498  169.0622 C.ar    1  UNL1        0.0576
     16 CL        142.8537  142.9404  170.0671 Cl      1  UNL1       -0.0823
     17 C         142.8519  140.4175  169.4470 C.ar    1  UNL1        0.0145
     18 C         142.6262  139.3268  168.4421 C.ar    1  UNL1        0.0374
     19 C         142.1767  139.6687  167.0525 C.ar    1  UNL1        0.1343
     20 O         141.8751  138.8150  165.8566 O.3     1  UNL1       -0.4825
     21 O         143.5686  139.6845  159.7901 O.3     1  UNL1       -0.4725
     22 C         144.3460  141.7492  161.1623 C.ar    1  UNL1        0.0897
     23 C         144.8347  142.3443  162.4495 C.ar    1  UNL1        0.0107
     24 C         145.0348  141.4699  163.6518 C.ar    1  UNL1        0.0370
     25 C         144.7462  140.0004  163.5668 C.ar    1  UNL1        0.1367
     26 O         144.9463  139.1260  164.7691 O.3     1  UNL1       -0.5054
     27 C         144.2575  139.4052  162.2796 C.ar    1  UNL1        0.0736
     28 C         144.0574  140.2796  161.0773 C.ar    1  UNL1        0.1461
     29 H         145.2516  139.4978  165.5732 H       1  UNL1        0.2922
     30 O         145.1587  142.6205  158.8536 O.2     1  UNL1       -0.2677
     31 C         144.1459  142.6235  159.9601 C.2     1  UNL1        0.2742
     32 N         142.9331  143.5009  159.8643 N.am    1  UNL1       -0.1620
     33 C         141.8406  143.6096  160.8864 C.3     1  UNL1        0.1561
     34 C         140.8321  144.5995  160.3834 C.3     1  UNL1        0.1648
     35 O         139.5750  145.0136  161.0894 O.3     1  UNL1       -0.3800
     36 C         141.3013  145.1026  159.0504 C.3     1  UNL1        0.2022
     37 O         142.5997  144.4236  158.7296 O.3     1  UNL1       -0.2601
     38 H         139.1009  145.6654  160.5498 H       1  UNL1        0.2105
@<TRIPOS>BOND
     1    30    31    2
     2    31    22    1
     3    22    23   ar
     4    23    24   ar
     5    24    25   ar
     6    25    26    1
     7    25    27   ar
     8    27    28   ar
     9    28    21    1
    10    21     1    1
    11     1     2    1
    12     2     3    1
    13     2     5    1
    14     5     6    1
    15     6     7    1
    16     7     8    1
    17     8     9    1
    18     9    10    1
    19    10    11    1
    20     9    12    1
    21    12    13    1
    22    13    14   ar
    23    14    15   ar
    24    15    16    1
    25    15    17   ar
    26    17    18   ar
    27    18    19   ar
    28    19    20    1
    29    31    32   am
    30    32    33    1
    31    33    34    1
    32    34    35    1
    33    34    36    1
    34    36    37    1
    35    28    22   ar
    36    11     6    1
    37    19    13   ar
    38    37    32    1
    39    20     9    1
    40    26    29    1
    41     3     4    1
    42    35    38    1
@<TRIPOS>MOLECULE
*****
 38 42 0 0 0
SMALL
GASTEIGER

@<TRIPOS>ATOM
      1 C         144.3207  141.0680  160.4936 C.3     1  UNL1        0.2358
      2 C         143.7288  139.7124  160.2447 C.3     1  UNL1        0.1700
      3 O         143.7206  139.1407  158.8579 O.3     1  UNL1       -0.3793
      4 H         144.1326  139.7706  158.2461 H       1  UNL1        0.2106
      5 C         143.1451  138.9285  161.3825 C.3     1  UNL1        0.1056
      6 N         142.9004  139.5941  162.7043 N.3     1  UNL1       -0.2703
      7 C         143.9679  139.5842  163.7580 C.3     1  UNL1        0.0758
      8 C         143.7232  140.2498  165.0798 C.3     1  UNL1        0.0577
      9 C         142.4110  140.9254  165.3478 C.3     1  UNL1        0.1399
     10 C         141.3435  140.9353  164.2941 C.3     1  UNL1        0.0577
     11 C         141.5882  140.2697  162.9723 C.3     1  UNL1        0.0758
     12 C         141.1556  141.6368  165.7577 C.3     1  UNL1        0.0695
     13 C         141.3475  142.1476  167.1550 C.ar    1  UNL1        0.0161
     14 C         140.4486  142.9219  168.0729 C.ar    1  UNL1        0.0102
     15 C         140.9237  143.3005  169.4444 C.ar    1  UNL1        0.0576
     16 CL        140.0249  144.0748  170.3622 Cl      1  UNL1       -0.0823
     17 C         142.2976  142.9048  169.8980 C.ar    1  UNL1        0.0145
     18 C         143.1965  142.1304  168.9802 C.ar    1  UNL1        0.0374
     19 C         142.7214  141.7518  167.6087 C.ar    1  UNL1        0.1343
     20 O         143.3787  140.9965  166.4918 O.3     1  UNL1       -0.4825
     21 O         143.4649  142.2939  160.3720 O.3     1  UNL1       -0.4725
     22 C         142.1838  144.2371  161.5264 C.ar    1  UNL1        0.0897
     23 C         141.9594  145.1165  162.7207 C.ar    1  UNL1        0.0107
     24 C         142.7918  144.9322  163.9548 C.ar    1  UNL1        0.0370
     25 C         143.8486  143.8684  163.9947 C.ar    1  UNL1        0.1367
     26 O         144.6810  143.6840  165.2289 O.3     1  UNL1       -0.5054
     27 C         144.0730  142.9889  162.8004 C.ar    1  UNL1        0.0736
     28 C         143.2406  143.1733  161.5663 C.ar    1  UNL1        0.1461
     29 H         144.5409  144.2334  165.9749 H       1  UNL1        0.2922
     30 O         141.7014  145.4952  159.3050 O.2     1  UNL1       -0.2677
     31 C         141.3514  144.4215  160.2923 C.2     1  UNL1        0.2742
     32 N         140.1690  143.5322  160.0454 N.am    1  UNL1       -0.1620
     33 C         139.6993  142.4219  160.9379 C.3     1  UNL1        0.1561
     34 C         138.4886  141.8005  160.3068 C.3     1  UNL1        0.1648
     35 O         137.6957  140.6541  160.8609 O.3     1  UNL1       -0.3800
     36 C         138.2101  142.5269  159.0242 C.3     1  UNL1        0.2022
     37 O         139.2486  143.5971  158.8627 O.3     1  UNL1       -0.2601
     38 H         136.9637  140.4465  160.2593 H       1  UNL1        0.2105
@<TRIPOS>BOND
     1    30    31    2
     2    31    22    1
     3    22    23   ar
     4    23    24   ar
     5    24    25   ar
     6    25    26    1
     7    25    27   ar
     8    27    28   ar
     9    28    21    1
    10    21     1    1
    11     1     2    1
    12     2     3    1
    13     2     5    1
    14     5     6    1
    15     6     7    1
    16     7     8    1
    17     8     9    1
    18     9    10    1
    19    10    11    1
    20     9    12    1
    21    12    13    1
    22    13    14   ar
    23    14    15   ar
    24    15    16    1
    25    15    17   ar
    26    17    18   ar
    27    18    19   ar
    28    19    20    1
    29    31    32   am
    30    32    33    1
    31    33    34    1
    32    34    35    1
    33    34    36    1
    34    36    37    1
    35    28    22   ar
    36    11     6    1
    37    19    13   ar
    38    37    32    1
    39    20     9    1
    40    26    29    1
    41     3     4    1
    42    35    38    1
@<TRIPOS>MOLECULE
*****
 38 42 0 0 0
SMALL
GASTEIGER

@<TRIPOS>ATOM
      1 C         143.0481  141.1971  158.9739 C.3     1  UNL1        0.2358
      2 C         143.5548  142.2742  159.8867 C.3     1  UNL1        0.1700
      3 O         143.0108  143.6677  159.7769 O.3     1  UNL1       -0.3793
      4 H         142.3454  143.7004  159.0719 H       1  UNL1        0.2106
      5 C         144.6054  141.9576  160.9094 C.3     1  UNL1        0.1056
      6 N         144.2187  141.7577  162.3449 N.3     1  UNL1       -0.2703
      7 C         143.9757  140.3739  162.8705 C.3     1  UNL1        0.0758
      8 C         143.5890  140.1741  164.3059 C.3     1  UNL1        0.0577
      9 C         143.4452  141.3579  165.2157 C.3     1  UNL1        0.1399
     10 C         143.6881  142.7416  164.6902 C.3     1  UNL1        0.0577
     11 C         144.0749  142.9415  163.2548 C.3     1  UNL1        0.0758
     12 C         143.2642  142.4397  166.2390 C.3     1  UNL1        0.0695
     13 C         142.8787  141.7915  167.5357 C.ar    1  UNL1        0.0161
     14 C         142.5724  142.3595  168.8897 C.ar    1  UNL1        0.0102
     15 C         142.2088  141.4452  170.0219 C.ar    1  UNL1        0.0576
     16 CL        141.9025  142.0132  171.3759 Cl      1  UNL1       -0.0823
     17 C         142.1516  139.9628  169.8001 C.ar    1  UNL1        0.0145
     18 C         142.4579  139.3947  168.4460 C.ar    1  UNL1        0.0374
     19 C         142.8214  140.3090  167.3138 C.ar    1  UNL1        0.1343
     20 O         143.1715  140.0411  165.8800 O.3     1  UNL1       -0.4825
     21 O         141.5965  140.8194  158.9928 O.3     1  UNL1       -0.4725
     22 C         139.8979  140.9594  160.9536 C.ar    1  UNL1        0.0897
     23 C         139.2926  140.3690  162.1926 C.ar    1  UNL1        0.0107
     24 C         139.7808  139.0483  162.7098 C.ar    1  UNL1        0.0370
     25 C         140.8742  138.3180  161.9880 C.ar    1  UNL1        0.1367
     26 O         141.3624  136.9973  162.5051 O.3     1  UNL1       -0.5054
     27 C         141.4795  138.9084  160.7489 C.ar    1  UNL1        0.0736
     28 C         140.9913  140.2291  160.2317 C.ar    1  UNL1        0.1461
     29 H         140.9843  136.6285  163.2791 H       1  UNL1        0.2922
     30 O         138.5255  142.3310  159.2258 O.2     1  UNL1       -0.2677
     31 C         139.4097  142.2801  160.4365 C.2     1  UNL1        0.2742
     32 N         139.8057  143.5498  161.1299 N.am    1  UNL1       -0.1620
     33 C         140.6794  143.6555  162.3446 C.3     1  UNL1        0.1561
     34 C         140.8112  145.1078  162.6959 C.3     1  UNL1        0.1648
     35 O         141.5973  145.6696  163.8433 O.3     1  UNL1       -0.3800
     36 C         140.0188  145.8998  161.6983 C.3     1  UNL1        0.2022
     37 O         139.3974  144.9368  160.7305 O.3     1  UNL1       -0.2601
     38 H         141.5178  146.6363  163.8471 H       1  UNL1        0.2105
@<TRIPOS>BOND
     1    30    31    2
     2    31    22    1
     3    22    23   ar
     4    23    24   ar
     5    24    25   ar
     6    25    26    1
     7    25    27   ar
     8    27    28   ar
     9    28    21    1
    10    21     1    1
    11     1     2    1
    12     2     3    1
    13     2     5    1
    14     5     6    1
    15     6     7    1
    16     7     8    1
    17     8     9    1
    18     9    10    1
    19    10    11    1
    20     9    12    1
    21    12    13    1
    22    13    14   ar
    23    14    15   ar
    24    15    16    1
    25    15    17   ar
    26    17    18   ar
    27    18    19   ar
    28    19    20    1
    29    31    32   am
    30    32    33    1
    31    33    34    1
    32    34    35    1
    33    34    36    1
    34    36    37    1
    35    28    22   ar
    36    11     6    1
    37    19    13   ar
    38    37    32    1
    39    20     9    1
    40    26    29    1
    41     3     4    1
    42    35    38    1
@<TRIPOS>MOLECULE
*****
 38 42 0 0 0
SMALL
GASTEIGER

@<TRIPOS>ATOM
      1 C         139.5513  139.9456  158.9992 C.3     1  UNL1        0.2358
      2 C         138.2379  140.6176  159.2702 C.3     1  UNL1        0.1700
      3 O         137.0094  140.1923  158.5220 O.3     1  UNL1       -0.3793
      4 H         137.2368  139.4778  157.9066 H       1  UNL1        0.2106
      5 C         138.1530  141.7149  160.2893 C.3     1  UNL1        0.1056
      6 N         138.6535  141.4833  161.6843 N.3     1  UNL1       -0.2703
      7 C         140.1141  141.6323  161.9915 C.3     1  UNL1        0.0758
      8 C         140.6145  141.4007  163.3864 C.3     1  UNL1        0.0577
      9 C         139.6544  141.0200  164.4742 C.3     1  UNL1        0.1399
     10 C         138.1938  140.8710  164.1670 C.3     1  UNL1        0.0577
     11 C         137.6934  141.1026  162.7720 C.3     1  UNL1        0.0758
     12 C         138.8178  140.6364  165.6587 C.3     1  UNL1        0.0695
     13 C         139.7257  140.5106  166.8462 C.ar    1  UNL1        0.0161
     14 C         139.4603  140.1571  168.2795 C.ar    1  UNL1        0.0102
     15 C         140.5925  140.1094  169.2623 C.ar    1  UNL1        0.0576
     16 CL        140.3271  139.7559  170.6956 Cl      1  UNL1       -0.0823
     17 C         141.9901  140.4152  168.8117 C.ar    1  UNL1        0.0145
     18 C         142.2556  140.7688  167.3783 C.ar    1  UNL1        0.0374
     19 C         141.1234  140.8165  166.3955 C.ar    1  UNL1        0.1343
     20 O         141.0793  141.1313  164.9296 O.3     1  UNL1       -0.4825
     21 O         139.7602  138.5165  159.4039 O.3     1  UNL1       -0.4725
     22 C         141.8256  138.0826  160.9192 C.ar    1  UNL1        0.0897
     23 C         142.4048  137.7612  162.2650 C.ar    1  UNL1        0.0107
     24 C         141.4978  137.5523  163.4413 C.ar    1  UNL1        0.0370
     25 C         140.0117  137.6648  163.2719 C.ar    1  UNL1        0.1367
     26 O         139.1048  137.4558  164.4482 O.3     1  UNL1       -0.5054
     27 C         139.4324  137.9862  161.9260 C.ar    1  UNL1        0.0736
     28 C         140.3394  138.1951  160.7497 C.ar    1  UNL1        0.1461
     29 H         139.4666  137.2551  165.2889 H       1  UNL1        0.2922
     30 O         143.1141  137.1295  158.8743 O.2     1  UNL1       -0.2677
     31 C         142.7325  138.2915  159.7428 C.2     1  UNL1        0.2742
     32 N         143.2579  139.6623  159.4350 N.am    1  UNL1       -0.1620
     33 C         142.9648  140.9132  160.2091 C.3     1  UNL1        0.1561
     34 C         143.6944  142.0469  159.5516 C.3     1  UNL1        0.1648
     35 O         143.6821  143.4794  159.9965 O.3     1  UNL1       -0.3800
     36 C         144.4383  141.4967  158.3709 C.3     1  UNL1        0.2022
     37 O         144.1685  140.0230  158.2989 O.3     1  UNL1       -0.2601
     38 H         144.2347  144.0080  159.3997 H       1  UNL1        0.2105
@<TRIPOS>BOND
     1    30    31    2
     2    31    22    1
     3    22    23   ar
     4    23    24   ar
     5    24    25   ar
     6    25    26    1
     7    25    27   ar
     8    27    28   ar
     9    28    21    1
    10    21     1    1
    11     1     2    1
    12     2     3    1
    13     2     5    1
    14     5     6    1
    15     6     7    1
    16     7     8    1
    17     8     9    1
    18     9    10    1
    19    10    11    1
    20     9    12    1
    21    12    13    1
    22    13    14   ar
    23    14    15   ar
    24    15    16    1
    25    15    17   ar
    26    17    18   ar
    27    18    19   ar
    28    19    20    1
    29    31    32   am
    30    32    33    1
    31    33    34    1
    32    34    35    1
    33    34    36    1
    34    36    37    1
    35    28    22   ar
    36    11     6    1
    37    19    13   ar
    38    37    32    1
    39    20     9    1
    40    26    29    1
    41     3     4    1
    42    35    38    1
