@<TRIPOS>MOLECULE
*****
 39 42 0 0 0
SMALL
GASTEIGER

@<TRIPOS>ATOM
      1 N         140.5075  139.0236  162.9379 N.3     1  UNL1       -0.2711
      2 C         140.9247  139.8827  161.7813 C.3     1  UNL1        0.0933
      3 C         140.9089  138.6814  160.8832 C.3     1  UNL1        0.1035
      4 C         140.4917  137.8222  162.0398 C.3     1  UNL1        0.0933
      5 C         139.6557  139.7490  167.2966 C.3     1  UNL1        0.1070
      6 O         138.6174  139.4343  168.3323 O.3     1  UNL1       -0.3827
      7 C         140.9035  140.3017  166.6741 C.3     1  UNL1        0.0325
      8 C         141.1875  140.0599  165.2212 C.3     1  UNL1        0.0187
      9 C         140.2236  139.2654  164.3908 C.3     1  UNL1        0.0578
     10 C         138.9758  138.7127  165.0132 C.3     1  UNL1        0.0187
     11 C         138.6918  138.9545  166.4661 C.3     1  UNL1        0.0325
     12 H         138.8787  139.8245  169.1811 H       1  UNL1        0.2107
     13 C         140.5331  142.5548  169.9626 C.ar    1  UNL1        0.0682
     14 C         141.4656  141.8047  170.8670 C.ar    1  UNL1        0.0103
     15 C         141.7947  140.3694  170.5813 C.ar    1  UNL1        0.0004
     16 C         141.1914  139.6842  169.3912 C.ar    1  UNL1       -0.0020
     17 C         140.2590  140.4342  168.4868 C.ar    1  UNL1        0.0024
     18 C         139.9299  141.8695  168.7725 C.ar    1  UNL1        0.0082
     19 N         139.8749  145.4253  170.5340 N.1     1  UNL1       -0.1908
     20 C         140.2040  143.9900  170.2483 C.1     1  UNL1        0.1004
     21 N         141.1928  138.4394  159.4303 N.am    1  UNL1       -0.3018
     22 C         140.1134  138.6496  158.4101 C.2     1  UNL1        0.2426
     23 O         138.7502  139.1017  158.8428 O.2     1  UNL1       -0.2733
     24 H         142.0875  138.1427  159.1464 H       1  UNL1        0.1495
     25 C         140.3972  138.4077  156.9572 C.3     1  UNL1        0.1759
     26 N         140.8294  137.0481  156.4937 N.am    1  UNL1       -0.2931
     27 C         142.2645  136.6319  156.6256 C.2     1  UNL1        0.2462
     28 O         143.2672  137.5752  157.2210 O.2     1  UNL1       -0.2701
     29 H         140.1712  136.4290  156.1029 H       1  UNL1        0.1502
     30 C         142.6966  135.2724  156.1621 C.ar    1  UNL1        0.0533
     31 C         142.2454  134.7562  154.8280 C.ar    1  UNL1        0.0045
     32 C         142.6775  133.3966  154.3646 C.ar    1  UNL1        0.0001
     33 C         143.5610  132.5532  155.2353 C.ar    1  UNL1        0.0039
     34 C         144.0123  133.0693  156.5695 C.ar    1  UNL1        0.0716
     35 C         143.5801  134.4288  157.0329 C.ar    1  UNL1        0.0084
     36 C         144.8957  132.2259  157.4402 C.3     1  UNL1        0.4186
     37 F         145.7791  131.3825  158.3109 F       1  UNL1       -0.1659
     38 F         144.9012  133.3061  158.4809 F       1  UNL1       -0.1659
     39 F         144.8902  131.1457  156.3995 F       1  UNL1       -0.1659
@<TRIPOS>BOND
     1    19    20    3
     2    20    13    1
     3    13    14   ar
     4    14    15   ar
     5    15    16   ar
     6    16    17   ar
     7    17     5    1
     8     5     6    1
     9     5     7    1
    10     7     8    1
    11     8     9    1
    12     9     1    1
    13     1     2    1
    14     2     3    1
    15     3    21    1
    16    21    22   am
    17    22    23    2
    18    22    25    1
    19    25    26    1
    20    26    27   am
    21    27    28    2
    22    27    30    1
    23    30    31   ar
    24    31    32   ar
    25    32    33   ar
    26    33    34   ar
    27    34    36    1
    28    36    37    1
    29    36    38    1
    30    36    39    1
    31    34    35   ar
    32     3     4    1
    33     9    10    1
    34    10    11    1
    35    17    18   ar
    36    18    13   ar
    37    11     5    1
    38     4     1    1
    39    35    30   ar
    40     6    12    1
    41    21    24    1
    42    26    29    1
@<TRIPOS>MOLECULE
*****
 39 42 0 0 0
SMALL
GASTEIGER

@<TRIPOS>ATOM
      1 N         142.0933  138.9173  162.6960 N.3     1  UNL1       -0.2711
      2 C         141.8794  137.6707  161.8898 C.3     1  UNL1        0.0933
      3 C         142.0578  138.4578  160.6254 C.3     1  UNL1        0.1035
      4 C         142.2717  139.7045  161.4317 C.3     1  UNL1        0.0933
      5 C         142.1687  139.8922  167.0885 C.3     1  UNL1        0.1070
      6 O         143.0273  139.6751  168.2991 O.3     1  UNL1       -0.3827
      7 C         141.0252  140.3575  166.2365 C.3     1  UNL1        0.0325
      8 C         141.0000  140.0326  164.7724 C.3     1  UNL1        0.0187
      9 C         142.1183  139.2423  164.1602 C.3     1  UNL1        0.0578
     10 C         143.2619  138.7769  165.0122 C.3     1  UNL1        0.0187
     11 C         143.2870  139.1019  166.4763 C.3     1  UNL1        0.0325
     12 H         142.6124  140.0943  169.0692 H       1  UNL1        0.2107
     13 C         139.3281  140.6517  169.7539 C.ar    1  UNL1        0.0682
     14 C         139.7082  142.0368  170.1863 C.ar    1  UNL1        0.0103
     15 C         140.9084  142.7071  169.5861 C.ar    1  UNL1        0.0004
     16 C         141.7286  141.9922  168.5535 C.ar    1  UNL1       -0.0020
     17 C         141.3485  140.6071  168.1211 C.ar    1  UNL1        0.0024
     18 C         140.1483  139.9369  168.7213 C.ar    1  UNL1        0.0082
     19 N         136.9277  139.3112  170.9543 N.1     1  UNL1       -0.1908
     20 C         138.1279  139.9815  170.3541 C.1     1  UNL1        0.1004
     21 N         142.0328  138.1329  159.1613 N.am    1  UNL1       -0.3018
     22 C         140.7520  138.2487  158.3891 C.2     1  UNL1        0.2426
     23 O         139.4963  138.6894  159.0811 O.2     1  UNL1       -0.2733
     24 H         142.8569  137.8436  158.7070 H       1  UNL1        0.1495
     25 C         140.7269  137.9238  156.9249 C.3     1  UNL1        0.1759
     26 N         141.0251  136.5289  156.4610 N.am    1  UNL1       -0.2931
     27 C         142.4474  136.0782  156.3057 C.2     1  UNL1        0.2462
     28 O         143.5713  137.0225  156.6143 O.2     1  UNL1       -0.2701
     29 H         140.2875  135.9092  156.2584 H       1  UNL1        0.1502
     30 C         142.7457  134.6833  155.8418 C.ar    1  UNL1        0.0533
     31 C         142.3841  134.2629  154.4481 C.ar    1  UNL1        0.0045
     32 C         142.6823  132.8680  153.9842 C.ar    1  UNL1        0.0001
     33 C         143.3423  131.8935  154.9141 C.ar    1  UNL1        0.0039
     34 C         143.7040  132.3137  156.3078 C.ar    1  UNL1        0.0716
     35 C         143.4057  133.7087  156.7717 C.ar    1  UNL1        0.0084
     36 C         144.3639  131.3392  157.2377 C.3     1  UNL1        0.4186
     37 F         145.0239  130.3647  158.1676 F       1  UNL1       -0.1659
     38 F         145.6965  131.9627  156.9454 F       1  UNL1       -0.1659
     39 F         143.0314  130.7157  157.5300 F       1  UNL1       -0.1659
@<TRIPOS>BOND
     1    19    20    3
     2    20    13    1
     3    13    14   ar
     4    14    15   ar
     5    15    16   ar
     6    16    17   ar
     7    17     5    1
     8     5     6    1
     9     5     7    1
    10     7     8    1
    11     8     9    1
    12     9     1    1
    13     1     2    1
    14     2     3    1
    15     3    21    1
    16    21    22   am
    17    22    23    2
    18    22    25    1
    19    25    26    1
    20    26    27   am
    21    27    28    2
    22    27    30    1
    23    30    31   ar
    24    31    32   ar
    25    32    33   ar
    26    33    34   ar
    27    34    36    1
    28    36    37    1
    29    36    38    1
    30    36    39    1
    31    34    35   ar
    32     3     4    1
    33     9    10    1
    34    10    11    1
    35    17    18   ar
    36    18    13   ar
    37    11     5    1
    38     4     1    1
    39    35    30   ar
    40     6    12    1
    41    21    24    1
    42    26    29    1
@<TRIPOS>MOLECULE
*****
 39 42 0 0 0
SMALL
GASTEIGER

@<TRIPOS>ATOM
      1 N         139.7570  142.2607  161.5906 N.3     1  UNL1       -0.2711
      2 C         140.1286  142.3359  160.1394 C.3     1  UNL1        0.0933
      3 C         138.6759  142.3118  159.7661 C.3     1  UNL1        0.1035
      4 C         138.3043  142.2366  161.2174 C.3     1  UNL1        0.0933
      5 C         142.0501  142.1525  165.4610 C.3     1  UNL1        0.1070
      6 O         143.3558  142.6151  166.0363 O.3     1  UNL1       -0.3827
      7 C         140.6975  141.5101  165.3724 C.3     1  UNL1        0.0325
      8 C         139.9331  141.5461  164.0823 C.3     1  UNL1        0.0187
      9 C         140.5213  142.2246  162.8808 C.3     1  UNL1        0.0578
     10 C         141.8739  142.8671  162.9694 C.3     1  UNL1        0.0187
     11 C         142.6382  142.8310  164.2595 C.3     1  UNL1        0.0325
     12 H         143.4135  142.3444  166.9660 H       1  UNL1        0.2107
     13 C         140.9098  141.8381  169.2493 C.ar    1  UNL1        0.0682
     14 C         141.6458  140.5990  169.6649 C.ar    1  UNL1        0.0103
     15 C         142.5166  139.8777  168.6793 C.ar    1  UNL1        0.0004
     16 C         142.6514  140.3955  167.2780 C.ar    1  UNL1       -0.0020
     17 C         141.9153  141.6346  166.8623 C.ar    1  UNL1        0.0024
     18 C         141.0446  142.3559  167.8480 C.ar    1  UNL1        0.0082
     19 N         139.1683  143.2807  171.2206 N.1     1  UNL1       -0.1908
     20 C         140.0391  142.5594  170.2349 C.1     1  UNL1        0.1004
     21 N         137.9116  142.3479  158.4761 N.am    1  UNL1       -0.3018
     22 C         137.7687  141.1016  157.6538 C.2     1  UNL1        0.2426
     23 O         138.3903  139.8191  158.1215 O.2     1  UNL1       -0.2733
     24 H         137.5036  143.1897  158.1690 H       1  UNL1        0.1495
     25 C         137.0043  141.1376  156.3636 C.3     1  UNL1        0.1759
     26 N         135.5125  141.2930  156.3798 N.am    1  UNL1       -0.2931
     27 C         134.6354  140.1569  155.9438 C.2     1  UNL1        0.2462
     28 O         135.2502  138.8656  155.4915 O.2     1  UNL1       -0.2701
     29 H         135.1090  142.1405  156.6767 H       1  UNL1        0.1502
     30 C         133.1436  140.3122  155.9600 C.ar    1  UNL1        0.0533
     31 C         132.5021  141.4690  155.2528 C.ar    1  UNL1        0.0045
     32 C         131.0103  141.6244  155.2690 C.ar    1  UNL1        0.0001
     33 C         130.1599  140.6228  155.9927 C.ar    1  UNL1        0.0039
     34 C         130.8012  139.4659  156.7000 C.ar    1  UNL1        0.0716
     35 C         132.2930  139.3106  156.6837 C.ar    1  UNL1        0.0084
     36 C         129.9508  138.4644  157.4236 C.3     1  UNL1        0.4186
     37 F         129.1004  137.4628  158.1472 F       1  UNL1       -0.1659
     38 F         130.2388  137.4495  156.3573 F       1  UNL1       -0.1659
     39 F         129.6627  139.4793  158.4898 F       1  UNL1       -0.1659
@<TRIPOS>BOND
     1    19    20    3
     2    20    13    1
     3    13    14   ar
     4    14    15   ar
     5    15    16   ar
     6    16    17   ar
     7    17     5    1
     8     5     6    1
     9     5     7    1
    10     7     8    1
    11     8     9    1
    12     9     1    1
    13     1     2    1
    14     2     3    1
    15     3    21    1
    16    21    22   am
    17    22    23    2
    18    22    25    1
    19    25    26    1
    20    26    27   am
    21    27    28    2
    22    27    30    1
    23    30    31   ar
    24    31    32   ar
    25    32    33   ar
    26    33    34   ar
    27    34    36    1
    28    36    37    1
    29    36    38    1
    30    36    39    1
    31    34    35   ar
    32     3     4    1
    33     9    10    1
    34    10    11    1
    35    17    18   ar
    36    18    13   ar
    37    11     5    1
    38     4     1    1
    39    35    30   ar
    40     6    12    1
    41    21    24    1
    42    26    29    1
@<TRIPOS>MOLECULE
*****
 39 42 0 0 0
SMALL
GASTEIGER

@<TRIPOS>ATOM
      1 N         142.9122  139.2589  161.6171 N.3     1  UNL1       -0.2711
      2 C         143.2649  139.6344  160.2084 C.3     1  UNL1        0.0933
      3 C         142.8246  138.2800  159.7372 C.3     1  UNL1        0.1035
      4 C         142.4719  137.9046  161.1460 C.3     1  UNL1        0.0933
      5 C         143.0980  141.3354  165.6051 C.3     1  UNL1        0.1070
      6 O         143.7623  142.5107  166.2587 O.3     1  UNL1       -0.3827
      7 C         142.2359  140.1201  165.4317 C.3     1  UNL1        0.0325
      8 C         142.1740  139.4280  164.1024 C.3     1  UNL1        0.0187
      9 C         142.9741  139.9510  162.9465 C.3     1  UNL1        0.0578
     10 C         143.8361  141.1663  163.1199 C.3     1  UNL1        0.0187
     11 C         143.8981  141.8584  164.4491 C.3     1  UNL1        0.0325
     12 H         143.4815  142.5665  167.1855 H       1  UNL1        0.2107
     13 C         141.3126  142.2949  169.0171 C.ar    1  UNL1        0.0682
     14 C         141.3897  140.9907  169.7539 C.ar    1  UNL1        0.0103
     15 C         142.0363  139.8014  169.1079 C.ar    1  UNL1        0.0004
     16 C         142.6057  139.9162  167.7250 C.ar    1  UNL1       -0.0020
     17 C         142.5286  141.2205  166.9881 C.ar    1  UNL1        0.0024
     18 C         141.8820  142.4098  167.6341 C.ar    1  UNL1        0.0082
     19 N         140.0194  144.6736  170.3092 N.1     1  UNL1       -0.1908
     20 C         140.6660  143.4843  169.6631 C.1     1  UNL1        0.1004
     21 N         142.7627  137.5879  158.4080 N.am    1  UNL1       -0.3018
     22 C         141.5771  137.7901  157.5116 C.2     1  UNL1        0.2426
     23 O         140.4535  138.6845  157.9444 O.2     1  UNL1       -0.2733
     24 H         143.5002  137.0008  158.1238 H       1  UNL1        0.1495
     25 C         141.5151  137.0979  156.1822 C.3     1  UNL1        0.1759
     26 N         141.4300  135.6017  156.1189 N.am    1  UNL1       -0.2931
     27 C         142.6783  134.7750  156.2113 C.2     1  UNL1        0.2462
     28 O         144.0115  135.4446  156.3669 O.2     1  UNL1       -0.2701
     29 H         140.5550  135.1623  156.0168 H       1  UNL1        0.1502
     30 C         142.5932  133.2788  156.1481 C.ar    1  UNL1        0.0533
     31 C         141.5872  132.6220  155.2501 C.ar    1  UNL1        0.0045
     32 C         141.5021  131.1257  155.1868 C.ar    1  UNL1        0.0001
     33 C         142.4231  130.2863  156.0217 C.ar    1  UNL1        0.0039
     34 C         143.4292  130.9430  156.9198 C.ar    1  UNL1        0.0716
     35 C         143.5143  132.4392  156.9830 C.ar    1  UNL1        0.0084
     36 C         144.3502  130.1035  157.7546 C.3     1  UNL1        0.4186
     37 F         145.2712  129.2641  158.5894 F       1  UNL1       -0.1659
     38 F         143.7809  128.8621  157.1345 F       1  UNL1       -0.1659
     39 F         144.9196  131.3449  158.3747 F       1  UNL1       -0.1659
@<TRIPOS>BOND
     1    19    20    3
     2    20    13    1
     3    13    14   ar
     4    14    15   ar
     5    15    16   ar
     6    16    17   ar
     7    17     5    1
     8     5     6    1
     9     5     7    1
    10     7     8    1
    11     8     9    1
    12     9     1    1
    13     1     2    1
    14     2     3    1
    15     3    21    1
    16    21    22   am
    17    22    23    2
    18    22    25    1
    19    25    26    1
    20    26    27   am
    21    27    28    2
    22    27    30    1
    23    30    31   ar
    24    31    32   ar
    25    32    33   ar
    26    33    34   ar
    27    34    36    1
    28    36    37    1
    29    36    38    1
    30    36    39    1
    31    34    35   ar
    32     3     4    1
    33     9    10    1
    34    10    11    1
    35    17    18   ar
    36    18    13   ar
    37    11     5    1
    38     4     1    1
    39    35    30   ar
    40     6    12    1
    41    21    24    1
    42    26    29    1
@<TRIPOS>MOLECULE
*****
 39 42 0 0 0
SMALL
GASTEIGER

@<TRIPOS>ATOM
      1 N         142.8492  139.3153  161.5461 N.3     1  UNL1       -0.2711
      2 C         143.2667  139.6890  160.1547 C.3     1  UNL1        0.0933
      3 C         142.7321  138.3840  159.6437 C.3     1  UNL1        0.1035
      4 C         142.3146  138.0102  161.0351 C.3     1  UNL1        0.0933
      5 C         143.0977  141.2908  165.5816 C.3     1  UNL1        0.1070
      6 O         143.8042  142.4241  166.2647 O.3     1  UNL1       -0.3827
      7 C         142.1898  140.1144  165.3771 C.3     1  UNL1        0.0325
      8 C         142.1070  139.4559  164.0319 C.3     1  UNL1        0.0187
      9 C         142.9320  139.9738  162.8913 C.3     1  UNL1        0.0578
     10 C         143.8398  141.1502  163.0958 C.3     1  UNL1        0.0187
     11 C         143.9227  141.8087  164.4409 C.3     1  UNL1        0.0325
     12 H         143.5216  142.4695  167.1915 H       1  UNL1        0.2107
     13 C         141.2962  142.2298  168.9909 C.ar    1  UNL1        0.0682
     14 C         141.3587  140.9178  169.7152 C.ar    1  UNL1        0.0103
     15 C         142.0008  139.7301  169.0617 C.ar    1  UNL1        0.0004
     16 C         142.5804  139.8544  167.6838 C.ar    1  UNL1       -0.0020
     17 C         142.5180  141.1664  166.9595 C.ar    1  UNL1        0.0024
     18 C         141.8759  142.3541  167.6131 C.ar    1  UNL1        0.0082
     19 N         140.0120  144.6052  170.2979 N.1     1  UNL1       -0.1908
     20 C         140.6541  143.4175  169.6444 C.1     1  UNL1        0.1004
     21 N         142.6493  137.7255  158.2986 N.am    1  UNL1       -0.3018
     22 C         141.4140  137.8810  157.4622 C.2     1  UNL1        0.2426
     23 O         140.2614  138.6951  157.9708 O.2     1  UNL1       -0.2733
     24 H         143.4058  137.1912  157.9647 H       1  UNL1        0.1495
     25 C         141.3311  137.2225  156.1169 C.3     1  UNL1        0.1759
     26 N         141.2223  135.7297  156.0181 N.am    1  UNL1       -0.2931
     27 C         142.4449  134.8762  156.1827 C.2     1  UNL1        0.2462
     28 O         143.7760  135.5155  156.4461 O.2     1  UNL1       -0.2701
     29 H         140.3487  135.3102  155.8452 H       1  UNL1        0.1502
     30 C         142.3361  133.3834  156.0839 C.ar    1  UNL1        0.0533
     31 C         143.1887  132.5099  156.9556 C.ar    1  UNL1        0.0045
     32 C         143.0799  131.0171  156.8568 C.ar    1  UNL1        0.0001
     33 C         142.1184  130.3979  155.8861 C.ar    1  UNL1        0.0039
     34 C         141.2658  131.2713  155.0143 C.ar    1  UNL1        0.0716
     35 C         141.3746  132.7641  155.1132 C.ar    1  UNL1        0.0084
     36 C         140.3044  130.6521  154.0437 C.3     1  UNL1        0.4186
     37 F         139.3429  130.0329  153.0730 F       1  UNL1       -0.1659
     38 F         141.1279  131.1659  152.9001 F       1  UNL1       -0.1659
     39 F         139.4808  130.1384  155.1872 F       1  UNL1       -0.1659
@<TRIPOS>BOND
     1    19    20    3
     2    20    13    1
     3    13    14   ar
     4    14    15   ar
     5    15    16   ar
     6    16    17   ar
     7    17     5    1
     8     5     6    1
     9     5     7    1
    10     7     8    1
    11     8     9    1
    12     9     1    1
    13     1     2    1
    14     2     3    1
    15     3    21    1
    16    21    22   am
    17    22    23    2
    18    22    25    1
    19    25    26    1
    20    26    27   am
    21    27    28    2
    22    27    30    1
    23    30    31   ar
    24    31    32   ar
    25    32    33   ar
    26    33    34   ar
    27    34    36    1
    28    36    37    1
    29    36    38    1
    30    36    39    1
    31    34    35   ar
    32     3     4    1
    33     9    10    1
    34    10    11    1
    35    17    18   ar
    36    18    13   ar
    37    11     5    1
    38     4     1    1
    39    35    30   ar
    40     6    12    1
    41    21    24    1
    42    26    29    1
@<TRIPOS>MOLECULE
*****
 39 42 0 0 0
SMALL
GASTEIGER

@<TRIPOS>ATOM
      1 N         141.7289  139.7846  161.1731 N.3     1  UNL1       -0.2711
      2 C         141.6256  138.3513  160.7431 C.3     1  UNL1        0.0933
      3 C         141.8847  138.7587  159.3229 C.3     1  UNL1        0.1035
      4 C         141.9880  140.1921  159.7529 C.3     1  UNL1        0.0933
      5 C         141.3985  141.9612  165.0978 C.3     1  UNL1        0.1070
      6 O         141.1055  143.3326  165.6300 O.3     1  UNL1       -0.3827
      7 C         141.7346  140.4995  165.0768 C.3     1  UNL1        0.0325
      8 C         141.8448  139.7739  163.7686 C.3     1  UNL1        0.0187
      9 C         141.6188  140.5101  162.4814 C.3     1  UNL1        0.0578
     10 C         141.2826  141.9718  162.5024 C.3     1  UNL1        0.0187
     11 C         141.1725  142.6973  163.8105 C.3     1  UNL1        0.0325
     12 H         141.1508  143.3199  166.5989 H       1  UNL1        0.2107
     13 C         140.4720  140.9164  168.8127 C.ar    1  UNL1        0.0682
     14 C         141.7712  141.1815  169.5140 C.ar    1  UNL1        0.0103
     15 C         142.9461  141.7065  168.7434 C.ar    1  UNL1        0.0004
     16 C         142.8219  141.9664  167.2713 C.ar    1  UNL1       -0.0020
     17 C         141.5227  141.7013  166.5699 C.ar    1  UNL1        0.0024
     18 C         140.3478  141.1763  167.3406 C.ar    1  UNL1        0.0082
     19 N         138.1222  139.8664  170.3540 N.1     1  UNL1       -0.1908
     20 C         139.2971  140.3914  169.5834 C.1     1  UNL1        0.1004
     21 N         141.9948  138.0333  158.0146 N.am    1  UNL1       -0.3018
     22 C         140.7739  137.8218  157.1693 C.2     1  UNL1        0.2426
     23 O         139.4429  138.3356  157.6321 O.2     1  UNL1       -0.2733
     24 H         142.8684  137.6961  157.7108 H       1  UNL1        0.1495
     25 C         140.8840  137.0964  155.8609 C.3     1  UNL1        0.1759
     26 N         140.9768  135.5994  155.8388 N.am    1  UNL1       -0.2931
     27 C         142.2838  134.9246  156.1331 C.2     1  UNL1        0.2462
     28 O         143.4978  135.7468  156.4495 O.2     1  UNL1       -0.2701
     29 H         140.1799  135.0598  155.6312 H       1  UNL1        0.1502
     30 C         142.3765  133.4277  156.1111 C.ar    1  UNL1        0.0533
     31 C         141.5096  132.6361  155.1774 C.ar    1  UNL1        0.0045
     32 C         141.6024  131.1392  155.1553 C.ar    1  UNL1        0.0001
     33 C         142.5622  130.4338  156.0671 C.ar    1  UNL1        0.0039
     34 C         143.4292  131.2253  157.0008 C.ar    1  UNL1        0.0716
     35 C         143.3363  132.7222  157.0228 C.ar    1  UNL1        0.0084
     36 C         144.3889  130.5199  157.9125 C.3     1  UNL1        0.4186
     37 F         145.3487  129.8145  158.8242 F       1  UNL1       -0.1659
     38 F         145.4582  131.5079  157.5513 F       1  UNL1       -0.1659
     39 F         143.3197  129.5319  158.2737 F       1  UNL1       -0.1659
@<TRIPOS>BOND
     1    19    20    3
     2    20    13    1
     3    13    14   ar
     4    14    15   ar
     5    15    16   ar
     6    16    17   ar
     7    17     5    1
     8     5     6    1
     9     5     7    1
    10     7     8    1
    11     8     9    1
    12     9     1    1
    13     1     2    1
    14     2     3    1
    15     3    21    1
    16    21    22   am
    17    22    23    2
    18    22    25    1
    19    25    26    1
    20    26    27   am
    21    27    28    2
    22    27    30    1
    23    30    31   ar
    24    31    32   ar
    25    32    33   ar
    26    33    34   ar
    27    34    36    1
    28    36    37    1
    29    36    38    1
    30    36    39    1
    31    34    35   ar
    32     3     4    1
    33     9    10    1
    34    10    11    1
    35    17    18   ar
    36    18    13   ar
    37    11     5    1
    38     4     1    1
    39    35    30   ar
    40     6    12    1
    41    21    24    1
    42    26    29    1
@<TRIPOS>MOLECULE
*****
 39 42 0 0 0
SMALL
GASTEIGER

@<TRIPOS>ATOM
      1 N         139.9096  140.0883  160.9821 N.3     1  UNL1       -0.2711
      2 C         139.0947  140.2031  159.7281 C.3     1  UNL1        0.0933
      3 C         139.6614  138.9026  159.2408 C.3     1  UNL1        0.1035
      4 C         140.4765  138.7878  160.4948 C.3     1  UNL1        0.0933
      5 C         140.4362  142.6037  164.6761 C.3     1  UNL1        0.1070
      6 O         140.0413  143.9452  165.2187 O.3     1  UNL1       -0.3827
      7 C         141.0617  141.2424  164.6002 C.3     1  UNL1        0.0325
      8 C         140.8862  140.4040  163.3690 C.3     1  UNL1        0.0187
      9 C         140.0852  140.9267  162.2135 C.3     1  UNL1        0.0578
     10 C         139.4597  142.2880  162.2894 C.3     1  UNL1        0.0187
     11 C         139.6352  143.1265  163.5206 C.3     1  UNL1        0.0325
     12 H         140.4096  144.0549  166.1093 H       1  UNL1        0.2107
     13 C         140.9614  142.7327  168.6077 C.ar    1  UNL1        0.0682
     14 C         142.4276  142.4329  168.7079 C.ar    1  UNL1        0.0103
     15 C         143.2302  142.1901  167.4641 C.ar    1  UNL1        0.0004
     16 C         142.5664  142.2470  166.1202 C.ar    1  UNL1       -0.0020
     17 C         141.1001  142.5468  166.0201 C.ar    1  UNL1        0.0024
     18 C         140.2976  142.7896  167.2639 C.ar    1  UNL1        0.0082
     19 N         139.3563  143.2184  171.0953 N.1     1  UNL1       -0.1908
     20 C         140.1588  142.9755  169.8515 C.1     1  UNL1        0.1004
     21 N         139.4859  138.0641  158.0095 N.am    1  UNL1       -0.3018
     22 C         140.5340  138.0788  156.9364 C.2     1  UNL1        0.2426
     23 O         141.7575  138.9319  157.0947 O.2     1  UNL1       -0.2733
     24 H         138.6829  137.5042  157.9056 H       1  UNL1        0.1495
     25 C         140.3585  137.2403  155.7050 C.3     1  UNL1        0.1759
     26 N         140.5573  135.7552  155.7744 N.am    1  UNL1       -0.2931
     27 C         141.9444  135.1850  155.8073 C.2     1  UNL1        0.2462
     28 O         143.1324  136.0999  155.7709 O.2     1  UNL1       -0.2701
     29 H         139.7775  135.1547  155.7982 H       1  UNL1        0.1502
     30 C         142.1431  133.6999  155.8766 C.ar    1  UNL1        0.0533
     31 C         141.2686  132.7875  155.0688 C.ar    1  UNL1        0.0045
     32 C         141.4673  131.3024  155.1381 C.ar    1  UNL1        0.0001
     33 C         142.5409  130.7296  156.0154 C.ar    1  UNL1        0.0039
     34 C         143.4156  131.6419  156.8233 C.ar    1  UNL1        0.0716
     35 C         143.2167  133.1270  156.7539 C.ar    1  UNL1        0.0084
     36 C         144.4890  131.0691  157.7005 C.3     1  UNL1        0.4186
     37 F         145.5625  130.4963  158.5777 F       1  UNL1       -0.1659
     38 F         143.5362  130.0132  158.1770 F       1  UNL1       -0.1659
     39 F         145.4418  132.1250  157.2239 F       1  UNL1       -0.1659
@<TRIPOS>BOND
     1    19    20    3
     2    20    13    1
     3    13    14   ar
     4    14    15   ar
     5    15    16   ar
     6    16    17   ar
     7    17     5    1
     8     5     6    1
     9     5     7    1
    10     7     8    1
    11     8     9    1
    12     9     1    1
    13     1     2    1
    14     2     3    1
    15     3    21    1
    16    21    22   am
    17    22    23    2
    18    22    25    1
    19    25    26    1
    20    26    27   am
    21    27    28    2
    22    27    30    1
    23    30    31   ar
    24    31    32   ar
    25    32    33   ar
    26    33    34   ar
    27    34    36    1
    28    36    37    1
    29    36    38    1
    30    36    39    1
    31    34    35   ar
    32     3     4    1
    33     9    10    1
    34    10    11    1
    35    17    18   ar
    36    18    13   ar
    37    11     5    1
    38     4     1    1
    39    35    30   ar
    40     6    12    1
    41    21    24    1
    42    26    29    1
@<TRIPOS>MOLECULE
*****
 39 42 0 0 0
SMALL
GASTEIGER

@<TRIPOS>ATOM
      1 N         140.6849  139.8098  161.5148 N.3     1  UNL1       -0.2711
      2 C         140.1932  138.5273  160.9122 C.3     1  UNL1        0.0933
      3 C         140.9122  138.8511  159.6362 C.3     1  UNL1        0.1035
      4 C         141.4040  140.1337  160.2388 C.3     1  UNL1        0.0933
      5 C         140.2027  141.8440  165.4997 C.3     1  UNL1        0.1070
      6 O         139.8115  143.1748  166.0705 O.3     1  UNL1       -0.3827
      7 C         140.6442  140.4118  165.4372 C.3     1  UNL1        0.0325
      8 C         140.8050  139.7337  164.1090 C.3     1  UNL1        0.0187
      9 C         140.5242  140.4878  162.8431 C.3     1  UNL1        0.0578
     10 C         140.0827  141.9200  162.9055 C.3     1  UNL1        0.0187
     11 C         139.9219  142.5981  164.2338 C.3     1  UNL1        0.0325
     12 H         139.8590  143.1379  167.0387 H       1  UNL1        0.2107
     13 C         141.3904  142.1106  169.2770 C.ar    1  UNL1        0.0682
     14 C         140.6376  140.9683  169.8921 C.ar    1  UNL1        0.0103
     15 C         139.7398  140.1179  169.0431 C.ar    1  UNL1        0.0004
     16 C         139.5949  140.4098  167.5790 C.ar    1  UNL1       -0.0020
     17 C         140.3477  141.5521  166.9639 C.ar    1  UNL1        0.0024
     18 C         141.2454  142.4025  167.8129 C.ar    1  UNL1        0.0082
     19 N         143.1859  143.8114  170.9751 N.1     1  UNL1       -0.1908
     20 C         142.2882  142.9610  170.1260 C.1     1  UNL1        0.1004
     21 N         141.0730  138.1731  158.3079 N.am    1  UNL1       -0.3018
     22 C         139.9918  138.2830  157.2740 C.2     1  UNL1        0.2426
     23 O         138.7498  139.0708  157.5685 O.2     1  UNL1       -0.2733
     24 H         141.8882  137.6560  158.1146 H       1  UNL1        0.1495
     25 C         140.1525  137.6050  155.9456 C.3     1  UNL1        0.1759
     26 N         140.7123  136.2152  155.8757 N.am    1  UNL1       -0.2931
     27 C         142.0781  135.9850  155.2997 C.2     1  UNL1        0.2462
     28 O         142.8838  137.1445  154.7936 O.2     1  UNL1       -0.2701
     29 H         140.1834  135.4542  156.2079 H       1  UNL1        0.1502
     30 C         142.6379  134.5951  155.2299 C.ar    1  UNL1        0.0533
     31 C         142.2820  133.7000  154.0801 C.ar    1  UNL1        0.0045
     32 C         142.8419  132.3102  154.0102 C.ar    1  UNL1        0.0001
     33 C         143.7577  131.8155  155.0903 C.ar    1  UNL1        0.0039
     34 C         144.1137  132.7105  156.2402 C.ar    1  UNL1        0.0716
     35 C         143.5538  134.1003  156.3099 C.ar    1  UNL1        0.0084
     36 C         145.0295  132.2158  157.3202 C.3     1  UNL1        0.4186
     37 F         145.9453  131.7211  158.4002 F       1  UNL1       -0.1659
     38 F         144.6839  133.4095  158.1601 F       1  UNL1       -0.1659
     39 F         145.3752  131.0221  156.4803 F       1  UNL1       -0.1659
@<TRIPOS>BOND
     1    19    20    3
     2    20    13    1
     3    13    14   ar
     4    14    15   ar
     5    15    16   ar
     6    16    17   ar
     7    17     5    1
     8     5     6    1
     9     5     7    1
    10     7     8    1
    11     8     9    1
    12     9     1    1
    13     1     2    1
    14     2     3    1
    15     3    21    1
    16    21    22   am
    17    22    23    2
    18    22    25    1
    19    25    26    1
    20    26    27   am
    21    27    28    2
    22    27    30    1
    23    30    31   ar
    24    31    32   ar
    25    32    33   ar
    26    33    34   ar
    27    34    36    1
    28    36    37    1
    29    36    38    1
    30    36    39    1
    31    34    35   ar
    32     3     4    1
    33     9    10    1
    34    10    11    1
    35    17    18   ar
    36    18    13   ar
    37    11     5    1
    38     4     1    1
    39    35    30   ar
    40     6    12    1
    41    21    24    1
    42    26    29    1
@<TRIPOS>MOLECULE
*****
 39 42 0 0 0
SMALL
GASTEIGER

@<TRIPOS>ATOM
      1 N         141.7400  143.9247  158.9687 N.3     1  UNL1       -0.2711
      2 C         141.4111  143.7208  160.4179 C.3     1  UNL1        0.0933
      3 C         142.6851  142.9498  160.5985 C.3     1  UNL1        0.1035
      4 C         143.0140  143.1538  159.1493 C.3     1  UNL1        0.0933
      5 C         139.7351  145.9926  155.5112 C.3     1  UNL1        0.1070
      6 O         138.5283  145.8523  154.6316 O.3     1  UNL1       -0.3827
      7 C         141.0056  146.5484  156.0831 C.3     1  UNL1        0.0325
      8 C         141.6739  145.8592  157.2356 C.3     1  UNL1        0.0187
      9 C         141.0718  144.6141  157.8162 C.3     1  UNL1        0.0578
     10 C         139.8013  144.0582  157.2443 C.3     1  UNL1        0.0187
     11 C         139.1330  144.7475  156.0919 C.3     1  UNL1        0.0325
     12 H         138.5112  146.5778  153.9880 H       1  UNL1        0.2107
     13 C         139.5320  149.7128  154.1441 C.ar    1  UNL1        0.0682
     14 C         140.2842  149.5818  152.8530 C.ar    1  UNL1        0.0103
     15 C         140.8534  148.2544  152.4480 C.ar    1  UNL1        0.0004
     16 C         140.6704  147.0580  153.3340 C.ar    1  UNL1       -0.0020
     17 C         139.9182  147.1890  154.6251 C.ar    1  UNL1        0.0024
     18 C         139.3490  148.5164  155.0301 C.ar    1  UNL1        0.0082
     19 N         138.3935  152.3675  154.9542 N.1     1  UNL1       -0.1908
     20 C         138.9627  151.0402  154.5491 C.1     1  UNL1        0.1004
     21 N         143.3534  142.2605  161.7510 N.am    1  UNL1       -0.3018
     22 C         144.2499  143.0352  162.6707 C.2     1  UNL1        0.2426
     23 O         144.4782  144.4994  162.4380 O.2     1  UNL1       -0.2733
     24 H         143.2036  141.2995  161.9037 H       1  UNL1        0.1495
     25 C         144.9183  142.3459  163.8232 C.3     1  UNL1        0.1759
     26 N         144.2278  142.2668  165.1525 N.am    1  UNL1       -0.2931
     27 C         143.4176  141.0548  165.5057 C.2     1  UNL1        0.2462
     28 O         143.2979  139.9221  164.5297 O.2     1  UNL1       -0.2701
     29 H         144.3064  143.0103  165.7930 H       1  UNL1        0.1502
     30 C         142.7271  140.9757  166.8349 C.ar    1  UNL1        0.0533
     31 C         142.6414  139.6648  167.5589 C.ar    1  UNL1        0.0045
     32 C         141.9509  139.5857  168.8881 C.ar    1  UNL1        0.0001
     33 C         141.3460  140.8177  169.4934 C.ar    1  UNL1        0.0039
     34 C         141.4316  142.1287  168.7696 C.ar    1  UNL1        0.0716
     35 C         142.1221  142.2077  167.4404 C.ar    1  UNL1        0.0084
     36 C         140.8267  143.3606  169.3749 C.3     1  UNL1        0.4186
     37 F         140.2219  144.5925  169.9803 F       1  UNL1       -0.1659
     38 F         141.5731  143.1006  170.6498 F       1  UNL1       -0.1659
     39 F         140.0804  143.6206  168.1001 F       1  UNL1       -0.1659
@<TRIPOS>BOND
     1    19    20    3
     2    20    13    1
     3    13    14   ar
     4    14    15   ar
     5    15    16   ar
     6    16    17   ar
     7    17     5    1
     8     5     6    1
     9     5     7    1
    10     7     8    1
    11     8     9    1
    12     9     1    1
    13     1     2    1
    14     2     3    1
    15     3    21    1
    16    21    22   am
    17    22    23    2
    18    22    25    1
    19    25    26    1
    20    26    27   am
    21    27    28    2
    22    27    30    1
    23    30    31   ar
    24    31    32   ar
    25    32    33   ar
    26    33    34   ar
    27    34    36    1
    28    36    37    1
    29    36    38    1
    30    36    39    1
    31    34    35   ar
    32     3     4    1
    33     9    10    1
    34    10    11    1
    35    17    18   ar
    36    18    13   ar
    37    11     5    1
    38     4     1    1
    39    35    30   ar
    40     6    12    1
    41    21    24    1
    42    26    29    1
