@<TRIPOS>MOLECULE
*****
 31 33 0 0 0
SMALL
GASTEIGER

@<TRIPOS>ATOM
      1 C         138.0252  140.0534  163.2082 C.ar    1  UNL1        0.1384
      2 C         137.7140  139.2022  162.0131 C.ar    1  UNL1        0.0608
      3 C         138.5741  138.0157  161.6929 C.ar    1  UNL1        0.1023
      4 N         139.7454  137.6806  162.5679 N.ar    1  UNL1       -0.2435
      5 C         140.0566  138.5319  163.7631 C.ar    1  UNL1        0.0877
      6 C         141.2280  138.1967  164.6381 C.ar    1  UNL1        0.0577
      7 C         141.5392  139.0480  165.8332 C.ar    1  UNL1        0.1652
      8 C         140.6791  140.2345  166.1534 C.ar    1  UNL1        0.1398
      9 C         139.5077  140.5696  165.2784 C.ar    1  UNL1        0.0263
     10 C         139.1965  139.7183  164.0832 C.ar    1  UNL1        0.0560
     11 S         140.9903  141.0858  167.3486 S.O2    1  UNL1        0.0083
     12 O         141.7883  142.0128  166.4805 O.2     1  UNL1       -0.1686
     13 O         140.1922  140.1588  168.2167 O.2     1  UNL1       -0.1686
     14 C         141.3015  141.9371  168.5438 C.3     1  UNL1        0.1152
     15 C         139.9497  141.6281  169.1158 C.3     1  UNL1        0.0240
     16 C         142.6532  142.2461  167.9718 C.3     1  UNL1        0.0240
     17 C         141.6126  142.7883  169.7390 C.3     1  UNL1        0.0240
     18 N         137.1650  141.2400  163.5284 N.pl3   1  UNL1       -0.2004
     19 H         136.2105  141.1147  163.7345 H       1  UNL1        0.2982
     20 C         139.5261  145.6976  161.9679 C.3     1  UNL1        0.0519
     21 C         138.8446  144.6662  162.8174 C.2     1  UNL1        0.0948
     22 N         138.5029  144.8070  164.2712 N.2     1  UNL1       -0.0428
     23 N         137.8322  143.5407  164.7144 N.2     1  UNL1        0.0753
     24 C         137.7593  142.6172  163.5347 C.2     1  UNL1        0.3331
     25 C         138.3850  143.3128  162.3622 C.3     1  UNL1        0.1480
     26 C         138.5263  142.7533  160.9777 C.3     1  UNL1        0.0190
     27 O         142.7105  138.7128  166.7082 O.3     1  UNL1       -0.4031
     28 C         144.0805  138.5847  166.1110 C.3     1  UNL1        0.5753
     29 F         145.4504  138.4565  165.5137 F       1  UNL1       -0.1328
     30 F         144.2613  137.2689  166.8080 F       1  UNL1       -0.1328
     31 F         143.8997  139.9005  165.4139 F       1  UNL1       -0.1328
@<TRIPOS>BOND
     1    20    21    1
     2    21    22    2
     3    22    23    1
     4    23    24    2
     5    24    18    1
     6    18     1    1
     7     1     2   ar
     8     2     3   ar
     9     3     4   ar
    10     4     5   ar
    11     5     6   ar
    12     6     7   ar
    13     7    27    1
    14    27    28    1
    15    28    29    1
    16    28    30    1
    17    28    31    1
    18     7     8   ar
    19     8    11    1
    20    11    12    2
    21    11    13    2
    22    11    14    1
    23    14    15    1
    24    14    16    1
    25    14    17    1
    26     8     9   ar
    27     9    10   ar
    28    24    25    1
    29    25    26    1
    30    25    21    1
    31    10     1   ar
    32    10     5   ar
    33    18    19    1
@<TRIPOS>MOLECULE
*****
 31 33 0 0 0
SMALL
GASTEIGER

@<TRIPOS>ATOM
      1 C         140.1158  143.6136  163.7953 C.ar    1  UNL1        0.1384
      2 C         139.2919  144.0943  162.6377 C.ar    1  UNL1        0.0608
      3 C         137.9899  143.4235  162.3141 C.ar    1  UNL1        0.1023
      4 N         137.5118  142.2720  163.1481 N.ar    1  UNL1       -0.2435
      5 C         138.3357  141.7914  164.3058 C.ar    1  UNL1        0.0877
      6 C         137.8576  140.6399  165.1398 C.ar    1  UNL1        0.0577
      7 C         138.6815  140.1593  166.2974 C.ar    1  UNL1        0.1652
      8 C         139.9836  140.8301  166.6210 C.ar    1  UNL1        0.1398
      9 C         140.4617  141.9815  165.7870 C.ar    1  UNL1        0.0263
     10 C         139.6377  142.4622  164.6293 C.ar    1  UNL1        0.0560
     11 S         140.8075  140.3495  167.7787 S.O2    1  UNL1        0.0083
     12 O         141.5431  139.4132  166.8664 O.2     1  UNL1       -0.1686
     13 O         140.0719  141.2857  168.6909 O.2     1  UNL1       -0.1686
     14 C         141.6314  139.8688  168.9364 C.3     1  UNL1        0.1152
     15 C         142.7841  139.6152  168.0107 C.3     1  UNL1        0.0240
     16 C         140.4787  140.1225  169.8621 C.3     1  UNL1        0.0240
     17 C         142.4553  139.3882  170.0940 C.3     1  UNL1        0.0240
     18 N         141.4179  144.2844  164.1189 N.pl3   1  UNL1       -0.2004
     19 H         141.4356  145.0561  164.7301 H       1  UNL1        0.2982
     20 C         146.0205  141.7818  163.4604 C.3     1  UNL1        0.0519
     21 C         144.8086  142.6291  163.2087 C.2     1  UNL1        0.0948
     22 N         144.5019  143.3757  161.9444 N.2     1  UNL1       -0.0428
     23 N         143.1944  144.0866  162.1315 N.2     1  UNL1        0.0753
     24 C         142.6930  143.7795  163.5114 C.2     1  UNL1        0.3331
     25 C         143.6907  142.8787  164.1772 C.3     1  UNL1        0.1480
     26 C         143.5884  142.3247  165.5674 C.3     1  UNL1        0.0190
     27 O         138.2034  139.0079  167.1314 O.3     1  UNL1       -0.4031
     28 C         137.9383  137.6774  166.4915 C.3     1  UNL1        0.5753
     29 F         137.6733  136.3469  165.8517 F       1  UNL1       -0.1328
     30 F         139.1364  137.8635  165.6084 F       1  UNL1       -0.1328
     31 F         136.7403  137.4913  167.3747 F       1  UNL1       -0.1328
@<TRIPOS>BOND
     1    20    21    1
     2    21    22    2
     3    22    23    1
     4    23    24    2
     5    24    18    1
     6    18     1    1
     7     1     2   ar
     8     2     3   ar
     9     3     4   ar
    10     4     5   ar
    11     5     6   ar
    12     6     7   ar
    13     7    27    1
    14    27    28    1
    15    28    29    1
    16    28    30    1
    17    28    31    1
    18     7     8   ar
    19     8    11    1
    20    11    12    2
    21    11    13    2
    22    11    14    1
    23    14    15    1
    24    14    16    1
    25    14    17    1
    26     8     9   ar
    27     9    10   ar
    28    24    25    1
    29    25    26    1
    30    25    21    1
    31    10     1   ar
    32    10     5   ar
    33    18    19    1
@<TRIPOS>MOLECULE
*****
 31 33 0 0 0
SMALL
GASTEIGER

@<TRIPOS>ATOM
      1 C         139.4633  139.1401  163.6922 C.ar    1  UNL1        0.1384
      2 C         139.8688  138.2945  162.5216 C.ar    1  UNL1        0.0608
      3 C         141.1674  137.5444  162.5523 C.ar    1  UNL1        0.1023
      4 N         142.0605  137.6400  163.7537 N.ar    1  UNL1       -0.2435
      5 C         141.6549  138.4856  164.9244 C.ar    1  UNL1        0.0877
      6 C         142.5480  138.5811  166.1257 C.ar    1  UNL1        0.0577
      7 C         142.1424  139.4267  167.2964 C.ar    1  UNL1        0.1652
      8 C         140.8438  140.1769  167.2657 C.ar    1  UNL1        0.1398
      9 C         139.9507  140.0813  166.0643 C.ar    1  UNL1        0.0263
     10 C         140.3563  139.2357  164.8936 C.ar    1  UNL1        0.0560
     11 S         140.4382  141.0225  168.4363 S.O2    1  UNL1        0.0083
     12 O         139.6388  139.8784  168.9858 O.2     1  UNL1       -0.1686
     13 O         141.2377  142.1665  167.8869 O.2     1  UNL1       -0.1686
     14 C         140.0327  141.8682  169.6070 C.3     1  UNL1        0.1152
     15 C         139.1972  140.7390  170.1332 C.3     1  UNL1        0.0240
     16 C         140.8682  142.9973  169.0808 C.3     1  UNL1        0.0240
     17 C         139.6272  142.7138  170.7776 C.3     1  UNL1        0.0240
     18 N         138.1646  139.8902  163.6615 N.pl3   1  UNL1       -0.2004
     19 H         137.3674  139.5124  164.0985 H       1  UNL1        0.2982
     20 C         138.4265  145.0714  162.6775 C.3     1  UNL1        0.0519
     21 C         138.2010  143.5976  162.5127 C.2     1  UNL1        0.0948
     22 N         137.7018  142.9151  161.2737 N.2     1  UNL1       -0.0428
     23 N         137.6274  141.4433  161.5533 N.2     1  UNL1        0.0753
     24 C         138.0806  141.2161  162.9650 C.2     1  UNL1        0.3331
     25 C         138.4351  142.5475  163.5579 C.3     1  UNL1        0.1480
     26 C         138.9358  142.7869  164.9515 C.3     1  UNL1        0.0190
     27 O         143.0355  139.5223  168.4978 O.3     1  UNL1       -0.4031
     28 C         143.0050  138.4464  169.5424 C.3     1  UNL1        0.5753
     29 F         142.9745  137.3704  170.5871 F       1  UNL1       -0.1328
     30 F         143.6905  137.5070  168.5950 F       1  UNL1       -0.1328
     31 F         142.3195  139.3857  170.4899 F       1  UNL1       -0.1328
@<TRIPOS>BOND
     1    20    21    1
     2    21    22    2
     3    22    23    1
     4    23    24    2
     5    24    18    1
     6    18     1    1
     7     1     2   ar
     8     2     3   ar
     9     3     4   ar
    10     4     5   ar
    11     5     6   ar
    12     6     7   ar
    13     7    27    1
    14    27    28    1
    15    28    29    1
    16    28    30    1
    17    28    31    1
    18     7     8   ar
    19     8    11    1
    20    11    12    2
    21    11    13    2
    22    11    14    1
    23    14    15    1
    24    14    16    1
    25    14    17    1
    26     8     9   ar
    27     9    10   ar
    28    24    25    1
    29    25    26    1
    30    25    21    1
    31    10     1   ar
    32    10     5   ar
    33    18    19    1
@<TRIPOS>MOLECULE
*****
 31 33 0 0 0
SMALL
GASTEIGER

@<TRIPOS>ATOM
      1 C         142.5745  141.9347  166.8131 C.ar    1  UNL1        0.1384
      2 C         143.1867  142.2204  168.1523 C.ar    1  UNL1        0.0608
      3 C         142.5196  141.7282  169.4023 C.ar    1  UNL1        0.1023
      4 N         141.2401  140.9503  169.3131 N.ar    1  UNL1       -0.2435
      5 C         140.6279  140.6647  167.9739 C.ar    1  UNL1        0.0877
      6 C         139.3484  139.8868  167.8847 C.ar    1  UNL1        0.0577
      7 C         138.7362  139.6011  166.5455 C.ar    1  UNL1        0.1652
      8 C         139.4034  140.0934  165.2954 C.ar    1  UNL1        0.1398
      9 C         140.6828  140.8712  165.3846 C.ar    1  UNL1        0.0263
     10 C         141.2951  141.1569  166.7239 C.ar    1  UNL1        0.0560
     11 S         138.7911  139.8077  163.9562 S.O2    1  UNL1        0.0083
     12 O         139.7028  138.6281  163.7910 O.2     1  UNL1       -0.1686
     13 O         137.8795  140.9873  164.1213 O.2     1  UNL1       -0.1686
     14 C         138.1788  139.5221  162.6169 C.3     1  UNL1        0.1152
     15 C         137.5935  140.9029  162.5900 C.3     1  UNL1        0.0240
     16 C         138.7641  138.1412  162.6438 C.3     1  UNL1        0.0240
     17 C         137.5665  139.2365  161.2777 C.3     1  UNL1        0.0240
     18 N         143.2417  142.4269  165.5630 N.pl3   1  UNL1       -0.2004
     19 H         143.3876  143.3914  165.4299 H       1  UNL1        0.2982
     20 C         144.0819  140.1017  160.8974 C.3     1  UNL1        0.0519
     21 C         144.0729  140.3808  162.3711 C.2     1  UNL1        0.0948
     22 N         144.6698  139.5104  163.4370 N.2     1  UNL1       -0.0428
     23 N         144.4311  140.1709  164.7624 N.2     1  UNL1        0.0753
     24 C         143.6866  141.4496  164.5157 C.2     1  UNL1        0.3331
     25 C         143.4652  141.5792  163.0378 C.3     1  UNL1        0.1480
     26 C         142.7600  142.7090  162.3477 C.3     1  UNL1        0.0190
     27 O         137.4567  138.8233  166.4563 O.3     1  UNL1       -0.4031
     28 C         137.3968  137.4163  166.9727 C.3     1  UNL1        0.5753
     29 F         137.3369  136.0093  167.4892 F       1  UNL1       -0.1328
     30 F         136.4881  137.8615  168.0800 F       1  UNL1       -0.1328
     31 F         138.3055  136.9712  165.8655 F       1  UNL1       -0.1328
@<TRIPOS>BOND
     1    20    21    1
     2    21    22    2
     3    22    23    1
     4    23    24    2
     5    24    18    1
     6    18     1    1
     7     1     2   ar
     8     2     3   ar
     9     3     4   ar
    10     4     5   ar
    11     5     6   ar
    12     6     7   ar
    13     7    27    1
    14    27    28    1
    15    28    29    1
    16    28    30    1
    17    28    31    1
    18     7     8   ar
    19     8    11    1
    20    11    12    2
    21    11    13    2
    22    11    14    1
    23    14    15    1
    24    14    16    1
    25    14    17    1
    26     8     9   ar
    27     9    10   ar
    28    24    25    1
    29    25    26    1
    30    25    21    1
    31    10     1   ar
    32    10     5   ar
    33    18    19    1
@<TRIPOS>MOLECULE
*****
 31 33 0 0 0
SMALL
GASTEIGER

@<TRIPOS>ATOM
      1 C         139.4907  142.7191  163.4218 C.ar    1  UNL1        0.1384
      2 C         138.6542  142.2093  162.2860 C.ar    1  UNL1        0.0608
      3 C         137.8561  140.9497  162.4487 C.ar    1  UNL1        0.1023
      4 N         137.8946  140.2000  163.7473 N.ar    1  UNL1       -0.2435
      5 C         138.7311  140.7098  164.8832 C.ar    1  UNL1        0.0877
      6 C         138.7696  139.9601  166.1818 C.ar    1  UNL1        0.0577
      7 C         139.6062  140.4699  167.3177 C.ar    1  UNL1        0.1652
      8 C         140.4043  141.7295  167.1549 C.ar    1  UNL1        0.1398
      9 C         140.3658  142.4793  165.8563 C.ar    1  UNL1        0.0263
     10 C         139.5292  141.9694  164.7204 C.ar    1  UNL1        0.0560
     11 S         141.2409  142.2393  168.2908 S.O2    1  UNL1        0.0083
     12 O         140.1552  143.2079  168.6557 O.2     1  UNL1       -0.1686
     13 O         142.3266  141.2708  167.9259 O.2     1  UNL1       -0.1686
     14 C         142.0775  142.7492  169.4267 C.3     1  UNL1        0.1152
     15 C         140.9297  143.5951  169.8924 C.3     1  UNL1        0.0240
     16 C         143.2254  141.9033  168.9610 C.3     1  UNL1        0.0240
     17 C         142.9141  143.2590  170.5625 C.3     1  UNL1        0.0240
     18 N         140.2889  143.9787  163.2591 N.pl3   1  UNL1       -0.2004
     19 H         140.7969  144.3414  164.0204 H       1  UNL1        0.2982
     20 C         141.6712  145.4683  158.3855 C.3     1  UNL1        0.0519
     21 C         140.9483  145.3704  159.6962 C.2     1  UNL1        0.0948
     22 N         139.7516  146.1770  160.1055 N.2     1  UNL1       -0.0428
     23 N         139.3590  145.7538  161.4900 N.2     1  UNL1        0.0753
     24 C         140.3130  144.6857  161.9364 C.2     1  UNL1        0.3331
     25 C         141.2952  144.4488  160.8277 C.3     1  UNL1        0.1480
     26 C         142.4259  143.4633  160.8472 C.3     1  UNL1        0.0190
     27 O         139.6447  139.7202  168.6163 O.3     1  UNL1       -0.4031
     28 C         138.5241  139.8698  169.6022 C.3     1  UNL1        0.5753
     29 F         137.4036  140.0194  170.5880 F       1  UNL1       -0.1328
     30 F         139.4245  140.6588  170.5058 F       1  UNL1       -0.1328
     31 F         137.6237  139.0808  168.6985 F       1  UNL1       -0.1328
@<TRIPOS>BOND
     1    20    21    1
     2    21    22    2
     3    22    23    1
     4    23    24    2
     5    24    18    1
     6    18     1    1
     7     1     2   ar
     8     2     3   ar
     9     3     4   ar
    10     4     5   ar
    11     5     6   ar
    12     6     7   ar
    13     7    27    1
    14    27    28    1
    15    28    29    1
    16    28    30    1
    17    28    31    1
    18     7     8   ar
    19     8    11    1
    20    11    12    2
    21    11    13    2
    22    11    14    1
    23    14    15    1
    24    14    16    1
    25    14    17    1
    26     8     9   ar
    27     9    10   ar
    28    24    25    1
    29    25    26    1
    30    25    21    1
    31    10     1   ar
    32    10     5   ar
    33    18    19    1
@<TRIPOS>MOLECULE
*****
 31 33 0 0 0
SMALL
GASTEIGER

@<TRIPOS>ATOM
      1 C         138.8089  138.7227  165.7434 C.ar    1  UNL1        0.1384
      2 C         137.6289  138.3227  166.5785 C.ar    1  UNL1        0.0608
      3 C         137.5681  138.7116  168.0259 C.ar    1  UNL1        0.1023
      4 N         138.6873  139.5006  168.6382 N.ar    1  UNL1       -0.2435
      5 C         139.8673  139.9006  167.8031 C.ar    1  UNL1        0.0877
      6 C         140.9865  140.6896  168.4154 C.ar    1  UNL1        0.0577
      7 C         142.1666  141.0896  167.5803 C.ar    1  UNL1        0.1652
      8 C         142.2275  140.7006  166.1328 C.ar    1  UNL1        0.1398
      9 C         141.1083  139.9116  165.5205 C.ar    1  UNL1        0.0263
     10 C         139.9282  139.5116  166.3557 C.ar    1  UNL1        0.0560
     11 S         143.4075  141.1006  165.2977 S.O2    1  UNL1        0.0083
     12 O         143.9597  139.7106  165.4122 O.2     1  UNL1       -0.1686
     13 O         142.8554  142.4905  165.1833 O.2     1  UNL1       -0.1686
     14 C         144.5876  141.5007  164.4626 C.3     1  UNL1        0.1152
     15 C         144.8077  140.0655  164.0862 C.3     1  UNL1        0.0240
     16 C         144.3675  142.9359  164.8390 C.3     1  UNL1        0.0240
     17 C         145.7677  141.9007  163.6275 C.3     1  UNL1        0.0240
     18 N         138.8698  138.3337  164.2960 N.pl3   1  UNL1       -0.2004
     19 H         139.2135  137.4478  164.0383 H       1  UNL1        0.2982
     20 C         137.9956  140.6114  159.6132 C.3     1  UNL1        0.0519
     21 C         138.0053  140.3415  161.0886 C.2     1  UNL1        0.0948
     22 N         137.3849  141.2047  162.1470 N.2     1  UNL1       -0.0428
     23 N         137.6333  140.5576  163.4772 N.2     1  UNL1        0.0753
     24 C         138.4071  139.2945  163.2411 C.2     1  UNL1        0.3331
     25 C         138.6370  139.1610  161.7649 C.3     1  UNL1        0.1480
     26 C         139.3701  138.0432  161.0843 C.3     1  UNL1        0.0190
     27 O         143.2858  141.8785  168.1926 O.3     1  UNL1       -0.4031
     28 C         143.0989  142.5318  169.5298 C.3     1  UNL1        0.5753
     29 F         142.9120  143.1850  170.8671 F       1  UNL1       -0.1328
     30 F         144.2511  141.7422  170.0766 F       1  UNL1       -0.1328
     31 F         141.9468  143.3214  168.9831 F       1  UNL1       -0.1328
@<TRIPOS>BOND
     1    20    21    1
     2    21    22    2
     3    22    23    1
     4    23    24    2
     5    24    18    1
     6    18     1    1
     7     1     2   ar
     8     2     3   ar
     9     3     4   ar
    10     4     5   ar
    11     5     6   ar
    12     6     7   ar
    13     7    27    1
    14    27    28    1
    15    28    29    1
    16    28    30    1
    17    28    31    1
    18     7     8   ar
    19     8    11    1
    20    11    12    2
    21    11    13    2
    22    11    14    1
    23    14    15    1
    24    14    16    1
    25    14    17    1
    26     8     9   ar
    27     9    10   ar
    28    24    25    1
    29    25    26    1
    30    25    21    1
    31    10     1   ar
    32    10     5   ar
    33    18    19    1
@<TRIPOS>MOLECULE
*****
 31 33 0 0 0
SMALL
GASTEIGER

@<TRIPOS>ATOM
      1 C         141.3999  139.5461  159.8217 C.ar    1  UNL1        0.1384
      2 C         142.2833  138.9520  158.7650 C.ar    1  UNL1        0.0608
      3 C         143.4795  139.7117  158.2733 C.ar    1  UNL1        0.1023
      4 N         143.7924  141.0655  158.8383 N.ar    1  UNL1       -0.2435
      5 C         142.9090  141.6597  159.8950 C.ar    1  UNL1        0.0877
      6 C         143.2219  143.0135  160.4599 C.ar    1  UNL1        0.0577
      7 C         142.3385  143.6077  161.5166 C.ar    1  UNL1        0.1652
      8 C         141.1422  142.8480  162.0083 C.ar    1  UNL1        0.1398
      9 C         140.8293  141.4941  161.4434 C.ar    1  UNL1        0.0263
     10 C         141.7128  140.9000  160.3866 C.ar    1  UNL1        0.0560
     11 S         140.2588  143.4421  163.0650 S.O2    1  UNL1        0.0083
     12 O         139.5340  144.2313  162.0153 O.2     1  UNL1       -0.1686
     13 O         140.9835  142.6530  164.1147 O.2     1  UNL1       -0.1686
     14 C         139.3754  144.0363  164.1217 C.3     1  UNL1        0.1152
     15 C         140.2492  143.4421  165.1863 C.3     1  UNL1        0.0240
     16 C         138.5015  144.6305  163.0572 C.3     1  UNL1        0.0240
     17 C         138.4920  144.6304  165.1785 C.3     1  UNL1        0.0240
     18 N         140.2036  138.7864  160.3134 N.pl3   1  UNL1       -0.2004
     19 H         139.4243  138.6608  159.7250 H       1  UNL1        0.2982
     20 C         138.7933  137.6924  165.2828 C.3     1  UNL1        0.0519
     21 C         139.5464  137.7153  163.9858 C.2     1  UNL1        0.0948
     22 N         140.8153  136.9723  163.6898 N.2     1  UNL1       -0.0428
     23 N         141.2159  137.2831  162.2781 N.2     1  UNL1        0.0753
     24 C         140.1946  138.2182  161.7016 C.2     1  UNL1        0.3331
     25 C         139.1628  138.4854  162.7570 C.3     1  UNL1        0.1480
     26 C         137.9587  139.3677  162.6096 C.3     1  UNL1        0.0190
     27 O         142.6513  144.9616  162.0816 O.3     1  UNL1       -0.4031
     28 C         143.4246  145.0797  163.3614 C.3     1  UNL1        0.5753
     29 F         144.1978  145.1979  164.6413 F       1  UNL1       -0.1328
     30 F         142.2676  145.7943  163.9945 F       1  UNL1       -0.1328
     31 F         144.5816  144.3652  162.7284 F       1  UNL1       -0.1328
@<TRIPOS>BOND
     1    20    21    1
     2    21    22    2
     3    22    23    1
     4    23    24    2
     5    24    18    1
     6    18     1    1
     7     1     2   ar
     8     2     3   ar
     9     3     4   ar
    10     4     5   ar
    11     5     6   ar
    12     6     7   ar
    13     7    27    1
    14    27    28    1
    15    28    29    1
    16    28    30    1
    17    28    31    1
    18     7     8   ar
    19     8    11    1
    20    11    12    2
    21    11    13    2
    22    11    14    1
    23    14    15    1
    24    14    16    1
    25    14    17    1
    26     8     9   ar
    27     9    10   ar
    28    24    25    1
    29    25    26    1
    30    25    21    1
    31    10     1   ar
    32    10     5   ar
    33    18    19    1
@<TRIPOS>MOLECULE
*****
 31 33 0 0 0
SMALL
GASTEIGER

@<TRIPOS>ATOM
      1 C         139.1807  139.1526  163.1150 C.ar    1  UNL1        0.1384
      2 C         138.0732  138.4844  162.3555 C.ar    1  UNL1        0.0608
      3 C         137.4642  139.1637  161.1649 C.ar    1  UNL1        0.1023
      4 N         137.9626  140.5112  160.7338 N.ar    1  UNL1       -0.2435
      5 C         139.0701  141.1794  161.4933 C.ar    1  UNL1        0.0877
      6 C         139.5686  142.5269  161.0623 C.ar    1  UNL1        0.0577
      7 C         140.6761  143.1951  161.8218 C.ar    1  UNL1        0.1652
      8 C         141.2852  142.5158  163.0125 C.ar    1  UNL1        0.1398
      9 C         140.7867  141.1683  163.4435 C.ar    1  UNL1        0.0263
     10 C         139.6792  140.5001  162.6839 C.ar    1  UNL1        0.0560
     11 S         142.3927  143.1840  163.7720 S.O2    1  UNL1        0.0083
     12 O         141.3917  143.7450  164.7380 O.2     1  UNL1       -0.1686
     13 O         143.3937  142.6230  162.8060 O.2     1  UNL1       -0.1686
     14 C         143.5003  143.8522  164.5315 C.3     1  UNL1        0.1152
     15 C         143.1597  145.1589  163.8785 C.3     1  UNL1        0.0240
     16 C         143.8408  142.5455  165.1846 C.3     1  UNL1        0.0240
     17 C         144.6078  144.5204  165.2910 C.3     1  UNL1        0.0240
     18 N         139.7899  138.4733  164.3056 N.pl3   1  UNL1       -0.2004
     19 H         140.5277  137.8331  164.1831 H       1  UNL1        0.2982
     20 C         139.4131  140.3283  169.2349 C.3     1  UNL1        0.0519
     21 C         139.1016  139.6221  167.9487 C.2     1  UNL1        0.0948
     22 N         137.8629  138.8284  167.6562 N.2     1  UNL1       -0.0428
     23 N         137.9699  138.3015  166.2559 N.2     1  UNL1        0.0753
     24 C         139.2748  138.7695  165.6830 C.2     1  UNL1        0.3331
     25 C         139.9742  139.5857  166.7292 C.3     1  UNL1        0.1480
     26 C         141.3115  140.2491  166.5818 C.3     1  UNL1        0.0190
     27 O         141.1745  144.5426  161.3908 O.3     1  UNL1       -0.4031
     28 C         140.2257  145.7012  161.3056 C.3     1  UNL1        0.5753
     29 F         139.2768  146.8598  161.2204 F       1  UNL1       -0.1328
     30 F         140.0123  145.6355  162.7889 F       1  UNL1       -0.1328
     31 F         140.4390  145.7669  159.8223 F       1  UNL1       -0.1328
@<TRIPOS>BOND
     1    20    21    1
     2    21    22    2
     3    22    23    1
     4    23    24    2
     5    24    18    1
     6    18     1    1
     7     1     2   ar
     8     2     3   ar
     9     3     4   ar
    10     4     5   ar
    11     5     6   ar
    12     6     7   ar
    13     7    27    1
    14    27    28    1
    15    28    29    1
    16    28    30    1
    17    28    31    1
    18     7     8   ar
    19     8    11    1
    20    11    12    2
    21    11    13    2
    22    11    14    1
    23    14    15    1
    24    14    16    1
    25    14    17    1
    26     8     9   ar
    27     9    10   ar
    28    24    25    1
    29    25    26    1
    30    25    21    1
    31    10     1   ar
    32    10     5   ar
    33    18    19    1
@<TRIPOS>MOLECULE
*****
 31 33 0 0 0
SMALL
GASTEIGER

@<TRIPOS>ATOM
      1 C         140.5119  144.0441  162.9822 C.ar    1  UNL1        0.1384
      2 C         139.4081  144.9518  162.5266 C.ar    1  UNL1        0.0608
      3 C         137.9894  144.6628  162.9187 C.ar    1  UNL1        0.1023
      4 N         137.6746  143.4659  163.7663 N.ar    1  UNL1       -0.2435
      5 C         138.7784  142.5582  164.2219 C.ar    1  UNL1        0.0877
      6 C         138.4635  141.3614  165.0695 C.ar    1  UNL1        0.0577
      7 C         139.5673  140.4537  165.5251 C.ar    1  UNL1        0.1652
      8 C         140.9860  140.7427  165.1331 C.ar    1  UNL1        0.1398
      9 C         141.3009  141.9395  164.2854 C.ar    1  UNL1        0.0263
     10 C         140.1970  142.8473  163.8298 C.ar    1  UNL1        0.0560
     11 S         142.0898  139.8350  165.5886 S.O2    1  UNL1        0.0083
     12 O         142.3689  140.7530  166.7416 O.2     1  UNL1       -0.1686
     13 O         141.8108  138.9170  164.4357 O.2     1  UNL1       -0.1686
     14 C         143.1937  138.9272  166.0442 C.3     1  UNL1        0.1152
     15 C         142.7641  139.1196  167.4684 C.3     1  UNL1        0.0240
     16 C         143.6233  138.7347  164.6200 C.3     1  UNL1        0.0240
     17 C         144.2975  138.0194  166.4998 C.3     1  UNL1        0.0240
     18 N         141.9306  144.3331  162.5901 N.pl3   1  UNL1       -0.2004
     19 H         142.5566  144.7104  163.2498 H       1  UNL1        0.2982
     20 C         144.4013  142.1445  158.4686 C.3     1  UNL1        0.0519
     21 C         143.5313  143.0415  159.2984 C.2     1  UNL1        0.0948
     22 N         142.6913  144.1742  158.7872 N.2     1  UNL1       -0.0428
     23 N         141.9895  144.7959  159.9581 N.2     1  UNL1        0.0753
     24 C         142.3957  144.0475  161.1929 C.2     1  UNL1        0.3331
     25 C         143.3486  142.9632  160.7852 C.3     1  UNL1        0.1480
     26 C         144.0038  141.9741  161.7031 C.3     1  UNL1        0.0190
     27 O         139.2524  139.2569  166.3728 O.3     1  UNL1       -0.4031
     28 C         138.6016  139.4367  167.7122 C.3     1  UNL1        0.5753
     29 F         137.9507  139.6166  169.0515 F       1  UNL1       -0.1328
     30 F         137.5153  138.4828  167.3124 F       1  UNL1       -0.1328
     31 F         139.6879  140.3907  168.1119 F       1  UNL1       -0.1328
@<TRIPOS>BOND
     1    20    21    1
     2    21    22    2
     3    22    23    1
     4    23    24    2
     5    24    18    1
     6    18     1    1
     7     1     2   ar
     8     2     3   ar
     9     3     4   ar
    10     4     5   ar
    11     5     6   ar
    12     6     7   ar
    13     7    27    1
    14    27    28    1
    15    28    29    1
    16    28    30    1
    17    28    31    1
    18     7     8   ar
    19     8    11    1
    20    11    12    2
    21    11    13    2
    22    11    14    1
    23    14    15    1
    24    14    16    1
    25    14    17    1
    26     8     9   ar
    27     9    10   ar
    28    24    25    1
    29    25    26    1
    30    25    21    1
    31    10     1   ar
    32    10     5   ar
    33    18    19    1
