@<TRIPOS>MOLECULE
*****
 29 32 0 0 0
SMALL
GASTEIGER

@<TRIPOS>ATOM
      1 N         140.1842  140.1786  166.4556 N.ar    1  UNL1       -0.2156
      2 N         141.3988  140.9419  166.0172 N.ar    1  UNL1       -0.1708
      3 C         142.1906  141.7305  167.0177 C.ar    1  UNL1        0.0847
      4 C         141.7679  141.7558  168.4568 C.ar    1  UNL1        0.0394
      5 C         142.5597  142.5443  169.4573 C.ar    1  UNL1        0.1002
      6 N         142.1370  142.5696  170.8962 N.ar    1  UNL1       -0.2423
      7 C         140.9225  141.8063  171.3347 C.ar    1  UNL1        0.0990
      8 C         140.1307  141.0177  170.3341 C.ar    1  UNL1        0.0255
      9 C         140.5534  140.9924  168.8952 C.ar    1  UNL1        0.0618
     10 C         139.7615  140.2038  167.8946 C.ar    1  UNL1        0.2764
     11 O         138.5470  139.4405  168.3330 O.2     1  UNL1       -0.2655
     12 C         139.3924  139.3900  165.4550 C.3     1  UNL1        0.1465
     13 N         138.2773  139.5392  163.0303 N.3     1  UNL1       -0.2700
     14 C         137.5118  140.5867  162.2776 C.3     1  UNL1        0.0722
     15 C         137.3888  141.7941  163.1591 C.3     1  UNL1        0.0188
     16 C         138.0784  141.4927  164.4567 C.3     1  UNL1        0.0194
     17 C         138.6275  140.0991  164.3771 C.3     1  UNL1        0.0822
     18 C         138.6306  138.1717  162.5250 C.3     1  UNL1        0.1046
     19 C         139.8659  137.9739  161.6974 C.3     1  UNL1        0.1595
     20 C         141.9820  137.9425  163.2044 C.3     1  UNL1        0.1742
     21 O         141.0424  137.2401  162.2696 O.3     1  UNL1       -0.3496
     22 C         143.4051  142.4938  166.5793 C.3     1  UNL1        0.0739
     23 C         143.7808  142.5361  165.1278 C.ar    1  UNL1       -0.0161
     24 C         144.5805  141.4181  164.5271 C.ar    1  UNL1       -0.0030
     25 C         144.9562  141.4605  163.0755 C.ar    1  UNL1        0.0111
     26 C         144.5323  142.6207  162.2246 C.ar    1  UNL1        0.0577
     27 CL        144.9080  142.6630  160.7731 Cl      1  UNL1       -0.0822
     28 C         143.7326  143.7386  162.8252 C.ar    1  UNL1        0.0111
     29 C         143.3569  143.6963  164.2768 C.ar    1  UNL1       -0.0030
@<TRIPOS>BOND
     1    20    21    1
     2    21    19    1
     3    19    18    1
     4    18    13    1
     5    13    14    1
     6    14    15    1
     7    15    16    1
     8    16    17    1
     9    17    12    1
    10    12     1    1
    11     1     2   ar
    12     2     3   ar
    13     3    22    1
    14    22    23    1
    15    23    24   ar
    16    24    25   ar
    17    25    26   ar
    18    26    27    1
    19    26    28   ar
    20    28    29   ar
    21     3     4   ar
    22     4     5   ar
    23     5     6   ar
    24     6     7   ar
    25     7     8   ar
    26     8     9   ar
    27     9    10   ar
    28    10    11    2
    29    17    13    1
    30    10     1   ar
    31    29    23   ar
    32     9     4   ar
@<TRIPOS>MOLECULE
*****
 29 32 0 0 0
SMALL
GASTEIGER

@<TRIPOS>ATOM
      1 N         142.6260  141.4625  166.3927 N.ar    1  UNL1       -0.2156
      2 N         141.4462  140.6395  165.9675 N.ar    1  UNL1       -0.1708
      3 C         140.3703  140.3035  166.9572 C.ar    1  UNL1        0.0847
      4 C         140.4742  140.7905  168.3722 C.ar    1  UNL1        0.0394
      5 C         139.3983  140.4545  169.3619 C.ar    1  UNL1        0.1002
      6 N         139.5022  140.9415  170.7768 N.ar    1  UNL1       -0.2423
      7 C         140.6820  141.7645  171.2020 C.ar    1  UNL1        0.0990
      8 C         141.7579  142.1004  170.2123 C.ar    1  UNL1        0.0255
      9 C         141.6540  141.6135  168.7974 C.ar    1  UNL1        0.0618
     10 C         142.7299  141.9494  167.8076 C.ar    1  UNL1        0.2764
     11 O         143.9097  142.7724  168.2328 O.2     1  UNL1       -0.2655
     12 C         143.7019  141.7984  165.4029 C.3     1  UNL1        0.1465
     13 N         143.9700  142.6561  162.8855 N.3     1  UNL1       -0.2700
     14 C         143.4208  143.8045  162.0920 C.3     1  UNL1        0.0722
     15 C         142.5265  144.6043  162.9924 C.3     1  UNL1        0.0188
     16 C         142.5229  143.9502  164.3422 C.3     1  UNL1        0.0194
     17 C         143.4151  142.7461  164.2761 C.3     1  UNL1        0.0822
     18 C         144.9091  141.6026  162.3774 C.3     1  UNL1        0.1046
     19 C         144.3780  140.2651  161.9543 C.3     1  UNL1        0.1595
     20 C         142.9591  138.6258  163.3858 C.3     1  UNL1        0.1742
     21 O         144.2968  139.1425  162.9459 O.3     1  UNL1       -0.3496
     22 C         139.1905  139.4806  166.5320 C.3     1  UNL1        0.0739
     23 C         138.7627  139.4697  165.0944 C.ar    1  UNL1       -0.0161
     24 C         138.0998  140.6769  164.4999 C.ar    1  UNL1       -0.0030
     25 C         137.6720  140.6660  163.0622 C.ar    1  UNL1        0.0111
     26 C         137.9070  139.4479  162.2190 C.ar    1  UNL1        0.0577
     27 CL        137.4792  139.4370  160.7814 Cl      1  UNL1       -0.0822
     28 C         138.5699  138.2407  162.8134 C.ar    1  UNL1        0.0111
     29 C         138.9977  138.2516  164.2511 C.ar    1  UNL1       -0.0030
@<TRIPOS>BOND
     1    20    21    1
     2    21    19    1
     3    19    18    1
     4    18    13    1
     5    13    14    1
     6    14    15    1
     7    15    16    1
     8    16    17    1
     9    17    12    1
    10    12     1    1
    11     1     2   ar
    12     2     3   ar
    13     3    22    1
    14    22    23    1
    15    23    24   ar
    16    24    25   ar
    17    25    26   ar
    18    26    27    1
    19    26    28   ar
    20    28    29   ar
    21     3     4   ar
    22     4     5   ar
    23     5     6   ar
    24     6     7   ar
    25     7     8   ar
    26     8     9   ar
    27     9    10   ar
    28    10    11    2
    29    17    13    1
    30    10     1   ar
    31    29    23   ar
    32     9     4   ar
@<TRIPOS>MOLECULE
*****
 29 32 0 0 0
SMALL
GASTEIGER

@<TRIPOS>ATOM
      1 N         142.4957  141.6144  166.4883 N.ar    1  UNL1       -0.2156
      2 N         141.2989  140.8206  166.0553 N.ar    1  UNL1       -0.1708
      3 C         140.2831  140.3823  167.0683 C.ar    1  UNL1        0.0847
      4 C         140.4641  140.7379  168.5143 C.ar    1  UNL1        0.0394
      5 C         139.4483  140.2997  169.5272 C.ar    1  UNL1        0.1002
      6 N         139.6293  140.6553  170.9731 N.ar    1  UNL1       -0.2423
      7 C         140.8261  141.4492  171.4061 C.ar    1  UNL1        0.0990
      8 C         141.8419  141.8874  170.3932 C.ar    1  UNL1        0.0255
      9 C         141.6609  141.5318  168.9473 C.ar    1  UNL1        0.0618
     10 C         142.6767  141.9700  167.9342 C.ar    1  UNL1        0.2764
     11 O         143.8735  142.7639  168.3672 O.2     1  UNL1       -0.2655
     12 C         143.5115  142.0526  165.4753 C.3     1  UNL1        0.1465
     13 N         143.8243  141.4973  162.8794 N.3     1  UNL1       -0.2700
     14 C         144.2706  140.2975  162.0977 C.3     1  UNL1        0.0722
     15 C         144.5970  139.2046  163.0720 C.3     1  UNL1        0.0188
     16 C         144.3524  139.7291  164.4559 C.3     1  UNL1        0.0194
     17 C         143.8748  141.1461  164.3368 C.3     1  UNL1        0.0822
     18 C         143.4016  142.8168  162.3046 C.3     1  UNL1        0.1046
     19 C         144.2456  144.0367  162.5269 C.3     1  UNL1        0.1595
     20 C         142.3228  145.2668  163.7675 C.3     1  UNL1        0.1742
     21 O         143.7848  145.1053  163.4733 O.3     1  UNL1       -0.3496
     22 C         139.0863  139.5885  166.6353 C.3     1  UNL1        0.0739
     23 C         138.6939  139.5522  165.1880 C.ar    1  UNL1       -0.0161
     24 C         138.0653  140.7560  164.5509 C.ar    1  UNL1       -0.0030
     25 C         137.6729  140.7198  163.1037 C.ar    1  UNL1        0.0111
     26 C         137.9092  139.4798  162.2933 C.ar    1  UNL1        0.0577
     27 CL        137.5168  139.4436  160.8461 Cl      1  UNL1       -0.0822
     28 C         138.5378  138.2761  162.9303 C.ar    1  UNL1        0.0111
     29 C         138.9302  138.3123  164.3777 C.ar    1  UNL1       -0.0030
@<TRIPOS>BOND
     1    20    21    1
     2    21    19    1
     3    19    18    1
     4    18    13    1
     5    13    14    1
     6    14    15    1
     7    15    16    1
     8    16    17    1
     9    17    12    1
    10    12     1    1
    11     1     2   ar
    12     2     3   ar
    13     3    22    1
    14    22    23    1
    15    23    24   ar
    16    24    25   ar
    17    25    26   ar
    18    26    27    1
    19    26    28   ar
    20    28    29   ar
    21     3     4   ar
    22     4     5   ar
    23     5     6   ar
    24     6     7   ar
    25     7     8   ar
    26     8     9   ar
    27     9    10   ar
    28    10    11    2
    29    17    13    1
    30    10     1   ar
    31    29    23   ar
    32     9     4   ar
@<TRIPOS>MOLECULE
*****
 29 32 0 0 0
SMALL
GASTEIGER

@<TRIPOS>ATOM
      1 N         142.5370  141.4905  166.4776 N.ar    1  UNL1       -0.2156
      2 N         141.3365  140.6781  166.0919 N.ar    1  UNL1       -0.1708
      3 C         140.3300  140.2865  167.1327 C.ar    1  UNL1        0.0847
      4 C         140.5239  140.7071  168.5595 C.ar    1  UNL1        0.0394
      5 C         139.5174  140.3155  169.6003 C.ar    1  UNL1        0.1002
      6 N         139.7114  140.7361  171.0270 N.ar    1  UNL1       -0.2423
      7 C         140.9120  141.5485  171.4127 C.ar    1  UNL1        0.0990
      8 C         141.9185  141.9401  170.3719 C.ar    1  UNL1        0.0255
      9 C         141.7245  141.5195  168.9452 C.ar    1  UNL1        0.0618
     10 C         142.7310  141.9111  167.9043 C.ar    1  UNL1        0.2764
     11 O         143.9316  142.7235  168.2901 O.2     1  UNL1       -0.2655
     12 C         143.5436  141.8821  165.4367 C.3     1  UNL1        0.1465
     13 N         142.3329  143.3815  163.5845 N.3     1  UNL1       -0.2700
     14 C         142.5075  144.7805  163.0721 C.3     1  UNL1        0.0722
     15 C         143.6414  145.4116  163.8245 C.3     1  UNL1        0.0188
     16 C         144.1675  144.4026  164.8019 C.3     1  UNL1        0.0194
     17 C         143.3588  143.1480  164.6535 C.3     1  UNL1        0.0822
     18 C         141.3116  142.3902  163.1109 C.3     1  UNL1        0.1046
     19 C         140.3552  142.7630  162.0170 C.3     1  UNL1        0.1595
     20 C         138.8595  144.0676  163.6935 C.3     1  UNL1        0.1742
     21 O         139.0494  143.4197  162.3540 O.3     1  UNL1       -0.3496
     22 C         139.1294  139.4741  166.7469 C.3     1  UNL1        0.0739
     23 C         138.7790  139.2945  165.2996 C.ar    1  UNL1       -0.0161
     24 C         138.1368  140.4163  164.5385 C.ar    1  UNL1       -0.0030
     25 C         137.7864  140.2366  163.0911 C.ar    1  UNL1        0.0111
     26 C         138.0782  138.9351  162.4048 C.ar    1  UNL1        0.0577
     27 CL        137.7278  138.7554  160.9575 Cl      1  UNL1       -0.0822
     28 C         138.7203  137.8133  163.1658 C.ar    1  UNL1        0.0111
     29 C         139.0708  137.9930  164.6133 C.ar    1  UNL1       -0.0030
@<TRIPOS>BOND
     1    20    21    1
     2    21    19    1
     3    19    18    1
     4    18    13    1
     5    13    14    1
     6    14    15    1
     7    15    16    1
     8    16    17    1
     9    17    12    1
    10    12     1    1
    11     1     2   ar
    12     2     3   ar
    13     3    22    1
    14    22    23    1
    15    23    24   ar
    16    24    25   ar
    17    25    26   ar
    18    26    27    1
    19    26    28   ar
    20    28    29   ar
    21     3     4   ar
    22     4     5   ar
    23     5     6   ar
    24     6     7   ar
    25     7     8   ar
    26     8     9   ar
    27     9    10   ar
    28    10    11    2
    29    17    13    1
    30    10     1   ar
    31    29    23   ar
    32     9     4   ar
@<TRIPOS>MOLECULE
*****
 29 32 0 0 0
SMALL
GASTEIGER

@<TRIPOS>ATOM
      1 N         142.3893  139.6930  167.0357 N.ar    1  UNL1       -0.2156
      2 N         141.7360  140.8103  166.2775 N.ar    1  UNL1       -0.1708
      3 C         141.0632  141.9271  167.0191 C.ar    1  UNL1        0.0847
      4 C         141.0438  141.9268  168.5191 C.ar    1  UNL1        0.0394
      5 C         140.3711  143.0436  169.2607 C.ar    1  UNL1        0.1002
      6 N         140.3517  143.0432  170.7605 N.ar    1  UNL1       -0.2423
      7 C         141.0051  141.9259  171.5187 C.ar    1  UNL1        0.0990
      8 C         141.6778  140.8091  170.7771 C.ar    1  UNL1        0.0255
      9 C         141.6972  140.8095  169.2773 C.ar    1  UNL1        0.0618
     10 C         142.3699  139.6926  168.5355 C.ar    1  UNL1        0.2764
     11 O         143.0233  138.5754  169.2938 O.2     1  UNL1       -0.2655
     12 C         143.0620  138.5761  166.2940 C.3     1  UNL1        0.1465
     13 N         143.9774  139.0990  163.8377 N.3     1  UNL1       -0.2700
     14 C         143.5050  138.8045  162.4448 C.3     1  UNL1        0.0722
     15 C         142.2189  138.0389  162.5435 C.3     1  UNL1        0.0188
     16 C         141.8965  137.8601  163.9975 C.3     1  UNL1        0.0194
     17 C         142.9832  138.5153  164.7973 C.3     1  UNL1        0.0822
     18 C         145.2249  139.8460  164.2061 C.3     1  UNL1        0.1046
     19 C         145.3449  141.3075  163.8904 C.3     1  UNL1        0.1595
     20 C         144.7707  142.3367  161.5751 C.3     1  UNL1        0.1742
     21 O         145.7735  141.7463  162.5216 O.3     1  UNL1       -0.3496
     22 C         140.4099  143.0444  166.2609 C.3     1  UNL1        0.0739
     23 C         139.8311  142.7898  164.9008 C.ar    1  UNL1       -0.0161
     24 C         138.5146  142.0835  164.7661 C.ar    1  UNL1       -0.0030
     25 C         137.9357  141.8289  163.4059 C.ar    1  UNL1        0.0111
     26 C         138.6733  142.2805  162.1804 C.ar    1  UNL1        0.0577
     27 CL        138.0945  142.0259  160.8202 Cl      1  UNL1       -0.0822
     28 C         139.9897  142.9868  162.3150 C.ar    1  UNL1        0.0111
     29 C         140.5686  143.2414  163.6752 C.ar    1  UNL1       -0.0030
@<TRIPOS>BOND
     1    20    21    1
     2    21    19    1
     3    19    18    1
     4    18    13    1
     5    13    14    1
     6    14    15    1
     7    15    16    1
     8    16    17    1
     9    17    12    1
    10    12     1    1
    11     1     2   ar
    12     2     3   ar
    13     3    22    1
    14    22    23    1
    15    23    24   ar
    16    24    25   ar
    17    25    26   ar
    18    26    27    1
    19    26    28   ar
    20    28    29   ar
    21     3     4   ar
    22     4     5   ar
    23     5     6   ar
    24     6     7   ar
    25     7     8   ar
    26     8     9   ar
    27     9    10   ar
    28    10    11    2
    29    17    13    1
    30    10     1   ar
    31    29    23   ar
    32     9     4   ar
@<TRIPOS>MOLECULE
*****
 29 32 0 0 0
SMALL
GASTEIGER

@<TRIPOS>ATOM
      1 N         142.4676  139.7012  167.0572 N.ar    1  UNL1       -0.2156
      2 N         141.7942  140.8048  166.2966 N.ar    1  UNL1       -0.1708
      3 C         141.0810  141.8982  167.0354 C.ar    1  UNL1        0.0847
      4 C         141.0412  141.8880  168.5349 C.ar    1  UNL1        0.0394
      5 C         140.3281  142.9814  169.2737 C.ar    1  UNL1        0.1002
      6 N         140.2883  142.9711  170.7731 N.ar    1  UNL1       -0.2423
      7 C         140.9617  141.8675  171.5337 C.ar    1  UNL1        0.0990
      8 C         141.6749  140.7741  170.7949 C.ar    1  UNL1        0.0255
      9 C         141.7146  140.7844  169.2955 C.ar    1  UNL1        0.0618
     10 C         142.4278  139.6909  168.5566 C.ar    1  UNL1        0.2764
     11 O         143.1012  138.5873  169.3172 O.2     1  UNL1       -0.2655
     12 C         143.1808  138.6078  166.3183 C.3     1  UNL1        0.1465
     13 N         142.2198  138.0802  163.8805 N.3     1  UNL1       -0.2700
     14 C         142.6926  138.3250  162.4781 C.3     1  UNL1        0.0722
     15 C         144.0137  139.0317  162.5511 C.3     1  UNL1        0.0188
     16 C         144.3573  139.2236  163.9985 C.3     1  UNL1        0.0194
     17 C         143.2487  138.6356  164.8201 C.3     1  UNL1        0.0822
     18 C         140.9424  137.3995  164.2740 C.3     1  UNL1        0.1046
     19 C         139.7215  138.2151  164.5808 C.3     1  UNL1        0.1595
     20 C         138.0042  138.6277  166.4861 C.3     1  UNL1        0.1742
     21 O         138.6902  137.6915  165.5359 O.3     1  UNL1       -0.3496
     22 C         140.4076  143.0018  166.2748 C.3     1  UNL1        0.0739
     23 C         139.8172  142.7294  164.9231 C.ar    1  UNL1       -0.0161
     24 C         140.5215  143.2057  163.6872 C.ar    1  UNL1       -0.0030
     25 C         139.9311  142.9332  162.3355 C.ar    1  UNL1        0.0111
     26 C         138.6365  142.1845  162.2195 C.ar    1  UNL1        0.0577
     27 CL        138.0461  141.9121  160.8678 Cl      1  UNL1       -0.0822
     28 C         137.9323  141.7083  163.4553 C.ar    1  UNL1        0.0111
     29 C         138.5226  141.9807  164.8071 C.ar    1  UNL1       -0.0030
@<TRIPOS>BOND
     1    20    21    1
     2    21    19    1
     3    19    18    1
     4    18    13    1
     5    13    14    1
     6    14    15    1
     7    15    16    1
     8    16    17    1
     9    17    12    1
    10    12     1    1
    11     1     2   ar
    12     2     3   ar
    13     3    22    1
    14    22    23    1
    15    23    24   ar
    16    24    25   ar
    17    25    26   ar
    18    26    27    1
    19    26    28   ar
    20    28    29   ar
    21     3     4   ar
    22     4     5   ar
    23     5     6   ar
    24     6     7   ar
    25     7     8   ar
    26     8     9   ar
    27     9    10   ar
    28    10    11    2
    29    17    13    1
    30    10     1   ar
    31    29    23   ar
    32     9     4   ar
@<TRIPOS>MOLECULE
*****
 29 32 0 0 0
SMALL
GASTEIGER

@<TRIPOS>ATOM
      1 N         139.7201  140.0910  166.6176 N.ar    1  UNL1       -0.2156
      2 N         140.7734  140.6928  165.7354 N.ar    1  UNL1       -0.1708
      3 C         141.9151  141.4533  166.3421 C.ar    1  UNL1        0.0847
      4 C         142.0035  141.6120  167.8311 C.ar    1  UNL1        0.0394
      5 C         143.1452  142.3725  168.4378 C.ar    1  UNL1        0.1002
      6 N         143.2335  142.5313  169.9268 N.ar    1  UNL1       -0.2423
      7 C         142.1802  141.9295  170.8090 C.ar    1  UNL1        0.0990
      8 C         141.0385  141.1690  170.2023 C.ar    1  UNL1        0.0255
      9 C         140.9502  141.0103  168.7133 C.ar    1  UNL1        0.0618
     10 C         139.8084  140.2497  168.1066 C.ar    1  UNL1        0.2764
     11 O         138.7551  139.6479  168.9888 O.2     1  UNL1       -0.2655
     12 C         138.5784  139.3305  166.0108 C.3     1  UNL1        0.1465
     13 N         138.1404  140.0061  163.4620 N.3     1  UNL1       -0.2700
     14 C         138.2838  139.3107  162.1407 C.3     1  UNL1        0.0722
     15 C         138.7953  137.9245  162.3995 C.3     1  UNL1        0.0188
     16 C         138.9678  137.7632  163.8808 C.3     1  UNL1        0.0194
     17 C         138.5631  139.0497  164.5375 C.3     1  UNL1        0.0822
     18 C         137.6587  141.4112  163.6711 C.3     1  UNL1        0.1046
     19 C         138.5960  142.5640  163.4645 C.3     1  UNL1        0.1595
     20 C         138.3935  144.6136  165.0480 C.3     1  UNL1        0.1742
     21 O         139.0908  143.3488  164.6431 O.3     1  UNL1       -0.3496
     22 C         142.9685  142.0551  165.4599 C.3     1  UNL1        0.0739
     23 C         142.5723  142.7982  164.2186 C.ar    1  UNL1       -0.0161
     24 C         142.4242  142.0630  162.9195 C.ar    1  UNL1       -0.0030
     25 C         142.0281  142.8061  161.6782 C.ar    1  UNL1        0.0111
     26 C         141.7801  144.2843  161.7359 C.ar    1  UNL1        0.0577
     27 CL        141.3839  145.0274  160.4946 Cl      1  UNL1       -0.0822
     28 C         141.9281  145.0194  163.0349 C.ar    1  UNL1        0.0111
     29 C         142.3243  144.2764  164.2763 C.ar    1  UNL1       -0.0030
@<TRIPOS>BOND
     1    20    21    1
     2    21    19    1
     3    19    18    1
     4    18    13    1
     5    13    14    1
     6    14    15    1
     7    15    16    1
     8    16    17    1
     9    17    12    1
    10    12     1    1
    11     1     2   ar
    12     2     3   ar
    13     3    22    1
    14    22    23    1
    15    23    24   ar
    16    24    25   ar
    17    25    26   ar
    18    26    27    1
    19    26    28   ar
    20    28    29   ar
    21     3     4   ar
    22     4     5   ar
    23     5     6   ar
    24     6     7   ar
    25     7     8   ar
    26     8     9   ar
    27     9    10   ar
    28    10    11    2
    29    17    13    1
    30    10     1   ar
    31    29    23   ar
    32     9     4   ar
@<TRIPOS>MOLECULE
*****
 29 32 0 0 0
SMALL
GASTEIGER

@<TRIPOS>ATOM
      1 N         139.7174  140.8985  166.2372 N.ar    1  UNL1       -0.2156
      2 N         140.8597  141.7589  165.7846 N.ar    1  UNL1       -0.1708
      3 C         142.0581  141.9403  166.6683 C.ar    1  UNL1        0.0847
      4 C         142.1142  141.2613  168.0047 C.ar    1  UNL1        0.0394
      5 C         143.3126  141.4427  168.8884 C.ar    1  UNL1        0.1002
      6 N         143.3687  140.7637  170.2247 N.ar    1  UNL1       -0.2423
      7 C         142.2264  139.9033  170.6773 C.ar    1  UNL1        0.0990
      8 C         141.0280  139.7219  169.7936 C.ar    1  UNL1        0.0255
      9 C         140.9719  140.4009  168.4573 C.ar    1  UNL1        0.0618
     10 C         139.7735  140.2195  167.5736 C.ar    1  UNL1        0.2764
     11 O         138.6312  139.3592  168.0262 O.2     1  UNL1       -0.2655
     12 C         138.5190  140.7172  165.3535 C.3     1  UNL1        0.1465
     13 N         138.0179  139.9281  162.8493 N.3     1  UNL1       -0.2700
     14 C         138.2686  138.6766  162.0613 C.3     1  UNL1        0.0722
     15 C         138.9626  137.6951  162.9586 C.3     1  UNL1        0.0188
     16 C         139.1409  138.3401  164.3011 C.3     1  UNL1        0.0194
     17 C         138.5570  139.7201  164.2335 C.3     1  UNL1        0.0822
     18 C         137.3461  141.1696  162.3420 C.3     1  UNL1        0.1046
     19 C         138.1391  142.4293  162.1567 C.3     1  UNL1        0.1595
     20 C         138.4998  142.2203  159.5924 C.3     1  UNL1        0.1742
     21 O         138.2299  143.0659  160.8016 O.3     1  UNL1       -0.3496
     22 C         143.2004  142.8007  166.2157 C.3     1  UNL1        0.0739
     23 C         143.6606  142.7468  164.7890 C.ar    1  UNL1       -0.0161
     24 C         143.3666  143.8893  163.8625 C.ar    1  UNL1       -0.0030
     25 C         143.8267  143.8355  162.4359 C.ar    1  UNL1        0.0111
     26 C         144.5808  142.6392  161.9357 C.ar    1  UNL1        0.0577
     27 CL        145.0409  142.5853  160.5090 Cl      1  UNL1       -0.0822
     28 C         144.8748  141.4967  162.8621 C.ar    1  UNL1        0.0111
     29 C         144.4147  141.5505  164.2888 C.ar    1  UNL1       -0.0030
@<TRIPOS>BOND
     1    20    21    1
     2    21    19    1
     3    19    18    1
     4    18    13    1
     5    13    14    1
     6    14    15    1
     7    15    16    1
     8    16    17    1
     9    17    12    1
    10    12     1    1
    11     1     2   ar
    12     2     3   ar
    13     3    22    1
    14    22    23    1
    15    23    24   ar
    16    24    25   ar
    17    25    26   ar
    18    26    27    1
    19    26    28   ar
    20    28    29   ar
    21     3     4   ar
    22     4     5   ar
    23     5     6   ar
    24     6     7   ar
    25     7     8   ar
    26     8     9   ar
    27     9    10   ar
    28    10    11    2
    29    17    13    1
    30    10     1   ar
    31    29    23   ar
    32     9     4   ar
@<TRIPOS>MOLECULE
*****
 29 32 0 0 0
SMALL
GASTEIGER

@<TRIPOS>ATOM
      1 N         139.7648  139.8553  167.0572 N.ar    1  UNL1       -0.2156
      2 N         140.9220  140.3243  166.2260 N.ar    1  UNL1       -0.1708
      3 C         142.0135  141.1404  166.8526 C.ar    1  UNL1        0.0847
      4 C         141.9478  141.4875  168.3105 C.ar    1  UNL1        0.0394
      5 C         143.0392  142.3036  168.9371 C.ar    1  UNL1        0.1002
      6 N         142.9735  142.6506  170.3949 N.ar    1  UNL1       -0.2423
      7 C         141.8163  142.1816  171.2261 C.ar    1  UNL1        0.0990
      8 C         140.7248  141.3655  170.5995 C.ar    1  UNL1        0.0255
      9 C         140.7906  141.0185  169.1417 C.ar    1  UNL1        0.0618
     10 C         139.6991  140.2024  168.5150 C.ar    1  UNL1        0.2764
     11 O         138.5419  139.7333  169.3462 O.2     1  UNL1       -0.2655
     12 C         138.6733  139.0392  166.4306 C.3     1  UNL1        0.1465
     13 N         138.2135  139.8881  163.9380 N.3     1  UNL1       -0.2700
     14 C         138.3276  139.2790  162.5721 C.3     1  UNL1        0.0722
     15 C         138.8185  137.8705  162.7321 C.3     1  UNL1        0.0188
     16 C         139.0077  137.6093  164.1970 C.3     1  UNL1        0.0194
     17 C         138.6338  138.8563  164.9423 C.3     1  UNL1        0.0822
     18 C         137.7589  141.2841  164.2457 C.3     1  UNL1        0.1046
     19 C         138.7684  142.3542  164.5389 C.3     1  UNL1        0.1595
     20 C         137.7883  144.2588  163.0687 C.3     1  UNL1        0.1742
     21 O         138.9692  143.4815  163.5701 O.3     1  UNL1       -0.3496
     22 C         143.1707  141.6095  166.0214 C.3     1  UNL1        0.0739
     23 C         143.4110  141.0133  164.6661 C.ar    1  UNL1       -0.0161
     24 C         144.0954  139.6843  164.5420 C.ar    1  UNL1       -0.0030
     25 C         144.3358  139.0882  163.1867 C.ar    1  UNL1        0.0111
     26 C         143.8917  139.8210  161.9555 C.ar    1  UNL1        0.0577
     27 CL        144.1320  139.2249  160.6003 Cl      1  UNL1       -0.0822
     28 C         143.2072  141.1499  162.0796 C.ar    1  UNL1        0.0111
     29 C         142.9669  141.7461  163.4350 C.ar    1  UNL1       -0.0030
@<TRIPOS>BOND
     1    20    21    1
     2    21    19    1
     3    19    18    1
     4    18    13    1
     5    13    14    1
     6    14    15    1
     7    15    16    1
     8    16    17    1
     9    17    12    1
    10    12     1    1
    11     1     2   ar
    12     2     3   ar
    13     3    22    1
    14    22    23    1
    15    23    24   ar
    16    24    25   ar
    17    25    26   ar
    18    26    27    1
    19    26    28   ar
    20    28    29   ar
    21     3     4   ar
    22     4     5   ar
    23     5     6   ar
    24     6     7   ar
    25     7     8   ar
    26     8     9   ar
    27     9    10   ar
    28    10    11    2
    29    17    13    1
    30    10     1   ar
    31    29    23   ar
    32     9     4   ar
