@<TRIPOS>MOLECULE
*****
 36 41 0 0 0
SMALL
GASTEIGER

@<TRIPOS>ATOM
      1 N         139.7075  143.4954  158.3626 N.ar    1  UNL1       -0.2166
      2 N         140.7444  144.4656  157.8795 N.ar    1  UNL1       -0.1622
      3 C         141.1127  145.3597  159.0263 C.ar    1  UNL1        0.1265
      4 C         140.3033  144.9420  160.2182 C.ar    1  UNL1        0.0924
      5 C         139.4348  143.7898  159.8079 C.ar    1  UNL1        0.1315
      6 N         138.4642  143.0602  160.6885 N.pl3   1  UNL1       -0.3425
      7 H         138.3549  143.3289  161.6293 H       1  UNL1        0.1437
      8 H         137.9363  142.3125  160.3256 H       1  UNL1        0.1437
      9 C         138.7656  137.0712  153.9507 C.3     1  UNL1        0.1367
     10 C         138.6603  138.3260  154.7657 C.2     1  UNL1        0.3518
     11 N         139.7980  139.0459  155.4271 N.2     1  UNL1       -0.0350
     12 C         139.2396  140.2461  156.1325 C.2     1  UNL1        0.2332
     13 C         139.8899  141.3219  156.9510 C.2     1  UNL1        0.0690
     14 C         139.0573  142.4196  157.5440 C.2     1  UNL1        0.0842
     15 C         137.5745  142.4416  157.3185 C.2     1  UNL1        0.0020
     16 C         136.9243  141.3659  156.5000 C.3     1  UNL1        0.1053
     17 C         137.7569  140.2682  155.9070 C.2     1  UNL1        0.2175
     18 N         137.3988  139.0815  155.0623 N.2     1  UNL1       -0.0389
     19 C         140.3535  145.5668  161.5809 C.2     1  UNL1        0.2173
     20 O         139.7163  146.9041  161.8168 O.2     1  UNL1       -0.2848
     21 C         141.0410  144.8543  162.7077 C.2     1  UNL1        0.1199
     22 C         142.5216  144.7961  162.9413 C.2     1  UNL1        0.0235
     23 C         142.7642  143.9807  164.1768 C.2     1  UNL1        0.0155
     24 C         144.0248  143.5866  164.8876 C.2     1  UNL1        0.0006
     25 C         143.9549  142.7467  166.1285 C.2     1  UNL1       -0.0067
     26 C         142.6244  142.3009  166.6584 C.2     1  UNL1       -0.0223
     27 C         141.3637  142.6951  165.9475 C.3     1  UNL1        0.0691
     28 C         141.4336  143.5350  164.7067 C.2     1  UNL1        0.0632
     29 N         140.3686  144.0749  163.7988 N.2     1  UNL1       -0.2461
     30 C         142.5544  141.4610  167.8992 C.3     1  UNL1        0.0954
     31 N         141.3460  141.5309  168.7850 N.3     1  UNL1       -0.2649
     32 C         141.1254  142.7294  169.6596 C.3     1  UNL1        0.1049
     33 C         139.9170  142.7992  170.5454 C.3     1  UNL1        0.1595
     34 O         138.9291  141.6706  170.5568 O.3     1  UNL1       -0.3508
     35 C         139.1496  140.4721  169.6822 C.3     1  UNL1        0.1595
     36 C         140.3581  140.4022  168.7964 C.3     1  UNL1        0.1049
@<TRIPOS>BOND
     1     9    10    1
     2    10    11    2
     3    11    12    1
     4    12    13    2
     5    13    14    1
     6    14     1    1
     7     1     2   ar
     8     2     3   ar
     9     3     4   ar
    10     4    19    1
    11    19    20    2
    12    19    21    1
    13    21    22    2
    14    22    23    1
    15    23    24    2
    16    24    25    1
    17    25    26    2
    18    26    30    1
    19    30    31    1
    20    31    32    1
    21    32    33    1
    22    33    34    1
    23    34    35    1
    24    35    36    1
    25    26    27    1
    26    27    28    1
    27    28    29    2
    28     4     5   ar
    29     5     6    1
    30    14    15    2
    31    15    16    1
    32    16    17    1
    33    17    18    2
    34    18    10    1
    35    17    12    1
    36     5     1   ar
    37    29    21    1
    38    28    23    1
    39    36    31    1
    40     6     7    1
    41     6     8    1
@<TRIPOS>MOLECULE
*****
 36 41 0 0 0
SMALL
GASTEIGER

@<TRIPOS>ATOM
      1 N         141.4989  136.6863  156.6538 N.ar    1  UNL1       -0.2166
      2 N         142.4343  137.4295  157.5608 N.ar    1  UNL1       -0.1622
      3 C         141.6543  138.5139  158.2432 C.ar    1  UNL1        0.1265
      4 C         140.2368  138.4410  157.7579 C.ar    1  UNL1        0.0924
      5 C         140.1408  137.3114  156.7756 C.ar    1  UNL1        0.1315
      6 N         138.9038  136.8824  156.0436 N.pl3   1  UNL1       -0.3425
      7 H         138.0546  137.3580  156.1912 H       1  UNL1        0.1437
      8 H         138.9412  136.1252  155.4155 H       1  UNL1        0.1437
      9 C         144.4543  129.8074  154.2938 C.3     1  UNL1        0.1367
     10 C         143.7975  131.1441  154.4728 C.2     1  UNL1        0.3518
     11 N         143.7501  131.9401  155.7433 N.2     1  UNL1       -0.0350
     12 C         142.9960  133.2073  155.4685 C.2     1  UNL1        0.2332
     13 C         142.6365  134.3712  156.3437 C.2     1  UNL1        0.0690
     14 C         141.8584  135.5223  155.7785 C.2     1  UNL1        0.0842
     15 C         141.4398  135.5095  154.3382 C.2     1  UNL1        0.0020
     16 C         141.7993  134.3456  153.4630 C.3     1  UNL1        0.1053
     17 C         142.5774  133.1945  154.0281 C.2     1  UNL1        0.2175
     18 N         143.0728  131.9194  153.4128 N.2     1  UNL1       -0.0389
     19 C         139.1128  139.3397  158.1806 C.2     1  UNL1        0.2173
     20 O         138.2185  139.9589  157.1477 O.2     1  UNL1       -0.2848
     21 C         138.8830  139.6193  159.6363 C.2     1  UNL1        0.1199
     22 C         138.4536  140.9302  160.2253 C.2     1  UNL1        0.0235
     23 C         138.3475  140.7580  161.7117 C.2     1  UNL1        0.0155
     24 C         137.9666  141.7088  162.8075 C.2     1  UNL1        0.0006
     25 C         137.9495  141.2422  164.2330 C.2     1  UNL1       -0.0067
     26 C         138.3134  139.8248  164.5625 C.2     1  UNL1       -0.0223
     27 C         138.6943  138.8741  163.4667 C.3     1  UNL1        0.0691
     28 C         138.7114  139.3407  162.0413 C.2     1  UNL1        0.0632
     29 N         139.0423  138.6369  160.7586 N.2     1  UNL1       -0.2461
     30 C         138.2964  139.3582  165.9880 C.3     1  UNL1        0.0954
     31 N         139.4751  139.6216  166.8775 N.3     1  UNL1       -0.2649
     32 C         139.2629  139.9581  168.3237 C.3     1  UNL1        0.1049
     33 C         140.4416  140.2215  169.2133 C.3     1  UNL1        0.1595
     34 O         141.8325  140.1482  168.6566 O.3     1  UNL1       -0.3508
     35 C         142.0447  139.8117  167.2103 C.3     1  UNL1        0.1595
     36 C         140.8660  139.5483  166.3208 C.3     1  UNL1        0.1049
@<TRIPOS>BOND
     1     9    10    1
     2    10    11    2
     3    11    12    1
     4    12    13    2
     5    13    14    1
     6    14     1    1
     7     1     2   ar
     8     2     3   ar
     9     3     4   ar
    10     4    19    1
    11    19    20    2
    12    19    21    1
    13    21    22    2
    14    22    23    1
    15    23    24    2
    16    24    25    1
    17    25    26    2
    18    26    30    1
    19    30    31    1
    20    31    32    1
    21    32    33    1
    22    33    34    1
    23    34    35    1
    24    35    36    1
    25    26    27    1
    26    27    28    1
    27    28    29    2
    28     4     5   ar
    29     5     6    1
    30    14    15    2
    31    15    16    1
    32    16    17    1
    33    17    18    2
    34    18    10    1
    35    17    12    1
    36     5     1   ar
    37    29    21    1
    38    28    23    1
    39    36    31    1
    40     6     7    1
    41     6     8    1
@<TRIPOS>MOLECULE
*****
 36 41 0 0 0
SMALL
GASTEIGER

@<TRIPOS>ATOM
      1 N         140.0005  138.7586  159.3943 N.ar    1  UNL1       -0.2166
      2 N         139.2247  138.8082  158.1115 N.ar    1  UNL1       -0.1622
      3 C         140.0897  138.2423  157.0245 C.ar    1  UNL1        0.1265
      4 C         141.4001  137.8428  157.6355 C.ar    1  UNL1        0.0924
      5 C         141.3449  138.1619  159.1001 C.ar    1  UNL1        0.1315
      6 N         142.4417  137.9257  160.0958 N.pl3   1  UNL1       -0.3425
      7 H         143.2932  137.5266  159.8047 H       1  UNL1        0.1437
      8 H         142.3100  138.1699  161.0404 H       1  UNL1        0.1437
      9 C         137.9116  138.7019  166.9611 C.3     1  UNL1        0.1367
     10 C         138.2410  138.9918  165.5267 C.2     1  UNL1        0.3518
     11 N         138.7557  138.0031  164.5230 N.2     1  UNL1       -0.0350
     12 C         138.9463  138.7216  163.2202 C.2     1  UNL1        0.2332
     13 C         139.4300  138.2563  161.8787 C.2     1  UNL1        0.0690
     14 C         139.5168  139.2238  160.7358 C.2     1  UNL1        0.0842
     15 C         139.1199  140.6567  160.9343 C.2     1  UNL1        0.0020
     16 C         138.6362  141.1220  162.2758 C.3     1  UNL1        0.1053
     17 C         138.5494  140.1545  163.4187 C.2     1  UNL1        0.2175
     18 N         138.1135  140.3215  164.8442 N.2     1  UNL1       -0.0389
     19 C         142.5616  137.2316  156.9094 C.2     1  UNL1        0.2173
     20 O         143.6957  138.0970  156.4458 O.2     1  UNL1       -0.2848
     21 C         142.5890  135.7550  156.6470 C.2     1  UNL1        0.1199
     22 C         141.6669  135.0048  155.7322 C.2     1  UNL1        0.0235
     23 C         142.0514  133.5555  155.7731 C.2     1  UNL1        0.0155
     24 C         141.4953  132.3495  155.0758 C.2     1  UNL1        0.0006
     25 C         142.0990  130.9979  155.3186 C.2     1  UNL1       -0.0067
     26 C         143.2587  130.8524  156.2586 C.2     1  UNL1       -0.0223
     27 C         143.8148  132.0584  156.9560 C.3     1  UNL1        0.0691
     28 C         143.2112  133.4099  156.7132 C.2     1  UNL1        0.0632
     29 N         143.5434  134.7693  157.2533 N.2     1  UNL1       -0.2461
     30 C         143.8623  129.5009  156.5014 C.3     1  UNL1        0.0954
     31 N         143.4982  128.7272  157.7338 N.3     1  UNL1       -0.2649
     32 C         142.3853  127.7227  157.6873 C.3     1  UNL1        0.1049
     33 C         142.0211  126.9491  158.9197 C.3     1  UNL1        0.1595
     34 O         142.7699  127.1800  160.1987 O.3     1  UNL1       -0.3508
     35 C         143.8828  128.1845  160.2453 C.3     1  UNL1        0.1595
     36 C         144.2470  128.9582  159.0129 C.3     1  UNL1        0.1049
@<TRIPOS>BOND
     1     9    10    1
     2    10    11    2
     3    11    12    1
     4    12    13    2
     5    13    14    1
     6    14     1    1
     7     1     2   ar
     8     2     3   ar
     9     3     4   ar
    10     4    19    1
    11    19    20    2
    12    19    21    1
    13    21    22    2
    14    22    23    1
    15    23    24    2
    16    24    25    1
    17    25    26    2
    18    26    30    1
    19    30    31    1
    20    31    32    1
    21    32    33    1
    22    33    34    1
    23    34    35    1
    24    35    36    1
    25    26    27    1
    26    27    28    1
    27    28    29    2
    28     4     5   ar
    29     5     6    1
    30    14    15    2
    31    15    16    1
    32    16    17    1
    33    17    18    2
    34    18    10    1
    35    17    12    1
    36     5     1   ar
    37    29    21    1
    38    28    23    1
    39    36    31    1
    40     6     7    1
    41     6     8    1
@<TRIPOS>MOLECULE
*****
 36 41 0 0 0
SMALL
GASTEIGER

@<TRIPOS>ATOM
      1 N         139.9575  138.5300  158.4804 N.ar    1  UNL1       -0.2166
      2 N         139.2676  137.9220  157.2954 N.ar    1  UNL1       -0.1622
      3 C         140.3106  137.2742  156.4338 C.ar    1  UNL1        0.1265
      4 C         141.6453  137.4819  157.0863 C.ar    1  UNL1        0.0924
      5 C         141.4270  138.2581  158.3512 C.ar    1  UNL1        0.1315
      6 N         142.4913  138.6869  159.3172 N.pl3   1  UNL1       -0.3425
      7 H         143.4335  138.4595  159.1445 H       1  UNL1        0.1437
      8 H         142.2477  139.1959  160.1240 H       1  UNL1        0.1437
      9 C         137.5834  144.4316  163.0802 C.3     1  UNL1        0.1367
     10 C         137.8911  143.1380  162.3860 C.2     1  UNL1        0.3518
     11 N         138.7137  142.9791  161.1418 N.2     1  UNL1       -0.0350
     12 C         138.7613  141.5191  160.8009 C.2     1  UNL1        0.2332
     13 C         139.4244  140.7706  159.6829 C.2     1  UNL1        0.0690
     14 C         139.2944  139.2786  159.5984 C.2     1  UNL1        0.0842
     15 C         138.5012  138.5352  160.6320 C.2     1  UNL1        0.0020
     16 C         137.8380  139.2838  161.7500 C.3     1  UNL1        0.1053
     17 C         137.9681  140.7757  161.8344 C.2     1  UNL1        0.2175
     18 N         137.4303  141.7763  162.8140 N.2     1  UNL1       -0.0389
     19 C         142.9662  136.9984  156.5654 C.2     1  UNL1        0.2173
     20 O         144.0843  137.9720  156.3374 O.2     1  UNL1       -0.2848
     21 C         143.1689  135.5414  156.2724 C.2     1  UNL1        0.1199
     22 C         142.8705  134.8533  154.9734 C.2     1  UNL1        0.0235
     23 C         143.2229  133.4032  155.1253 C.2     1  UNL1        0.0155
     24 C         143.1404  132.2454  154.1752 C.2     1  UNL1        0.0006
     25 C         143.5741  130.8795  154.6180 C.2     1  UNL1       -0.0067
     26 C         144.0903  130.6714  156.0108 C.2     1  UNL1       -0.0223
     27 C         144.1728  131.8291  156.9609 C.3     1  UNL1        0.0691
     28 C         143.7391  133.1950  156.5182 C.2     1  UNL1        0.0632
     29 N         143.7058  134.5165  157.2271 N.2     1  UNL1       -0.2461
     30 C         144.5240  129.3054  156.4536 C.3     1  UNL1        0.0954
     31 N         143.9040  128.6782  157.6669 N.3     1  UNL1       -0.2649
     32 C         142.6555  127.8579  157.5321 C.3     1  UNL1        0.1049
     33 C         142.0355  127.2308  158.7454 C.3     1  UNL1        0.1595
     34 O         142.6639  127.4239  160.0936 O.3     1  UNL1       -0.3508
     35 C         143.9124  128.2442  160.2285 C.3     1  UNL1        0.1595
     36 C         144.5325  128.8714  159.0152 C.3     1  UNL1        0.1049
@<TRIPOS>BOND
     1     9    10    1
     2    10    11    2
     3    11    12    1
     4    12    13    2
     5    13    14    1
     6    14     1    1
     7     1     2   ar
     8     2     3   ar
     9     3     4   ar
    10     4    19    1
    11    19    20    2
    12    19    21    1
    13    21    22    2
    14    22    23    1
    15    23    24    2
    16    24    25    1
    17    25    26    2
    18    26    30    1
    19    30    31    1
    20    31    32    1
    21    32    33    1
    22    33    34    1
    23    34    35    1
    24    35    36    1
    25    26    27    1
    26    27    28    1
    27    28    29    2
    28     4     5   ar
    29     5     6    1
    30    14    15    2
    31    15    16    1
    32    16    17    1
    33    17    18    2
    34    18    10    1
    35    17    12    1
    36     5     1   ar
    37    29    21    1
    38    28    23    1
    39    36    31    1
    40     6     7    1
    41     6     8    1
@<TRIPOS>MOLECULE
*****
 36 41 0 0 0
SMALL
GASTEIGER

@<TRIPOS>ATOM
      1 N         142.1927  137.1839  156.6812 N.ar    1  UNL1       -0.2166
      2 N         143.3053  138.0797  157.1390 N.ar    1  UNL1       -0.1622
      3 C         142.7051  139.1808  157.9618 C.ar    1  UNL1        0.1265
      4 C         141.2214  138.9656  158.0126 C.ar    1  UNL1        0.0924
      5 C         140.9048  137.7314  157.2211 C.ar    1  UNL1        0.1315
      6 N         139.5399  137.1474  157.0072 N.pl3   1  UNL1       -0.3425
      7 H         138.7508  137.5816  157.4047 H       1  UNL1        0.1437
      8 H         139.4331  136.3298  156.4692 H       1  UNL1        0.1437
      9 C         144.2703  129.9843  154.3417 C.3     1  UNL1        0.1367
     10 C         143.7476  131.3776  154.5302 C.2     1  UNL1        0.3518
     11 N         143.9317  132.2308  155.7502 N.2     1  UNL1       -0.0350
     12 C         143.2469  133.5429  155.5059 C.2     1  UNL1        0.2332
     13 C         143.0979  134.7706  156.3546 C.2     1  UNL1        0.0690
     14 C         142.3417  135.9561  155.8324 C.2     1  UNL1        0.0842
     15 C         141.7345  135.9138  154.4615 C.2     1  UNL1        0.0020
     16 C         141.8835  134.6861  153.6127 C.3     1  UNL1        0.1053
     17 C         142.6397  133.5006  154.1349 C.2     1  UNL1        0.2175
     18 N         142.9492  132.1624  153.5320 N.2     1  UNL1       -0.0389
     19 C         140.2288  139.8324  158.7291 C.2     1  UNL1        0.2173
     20 O         139.5043  140.9152  157.9857 O.2     1  UNL1       -0.2848
     21 C         139.9607  139.6164  160.1891 C.2     1  UNL1        0.1199
     22 C         139.4417  138.3549  160.8130 C.2     1  UNL1        0.0235
     23 C         139.3248  138.5829  162.2910 C.2     1  UNL1        0.0155
     24 C         138.8692  137.6947  163.4106 C.2     1  UNL1        0.0006
     25 C         138.8604  138.2088  164.8197 C.2     1  UNL1       -0.0067
     26 C         139.3072  139.6111  165.1091 C.2     1  UNL1       -0.0223
     27 C         139.7627  140.4993  163.9895 C.3     1  UNL1        0.0691
     28 C         139.7715  139.9852  162.5805 C.2     1  UNL1        0.0632
     29 N         140.1645  140.6240  161.2814 N.2     1  UNL1       -0.2461
     30 C         139.2983  140.1253  166.5183 C.3     1  UNL1        0.0954
     31 N         140.4658  139.8581  167.4214 N.3     1  UNL1       -0.2649
     32 C         141.7730  139.4040  166.8429 C.3     1  UNL1        0.1049
     33 C         142.9405  139.1369  167.7461 C.3     1  UNL1        0.1595
     34 O         142.8006  139.3238  169.2277 O.3     1  UNL1       -0.3508
     35 C         141.4934  139.7780  169.8063 C.3     1  UNL1        0.1595
     36 C         140.3259  140.0451  168.9031 C.3     1  UNL1        0.1049
@<TRIPOS>BOND
     1     9    10    1
     2    10    11    2
     3    11    12    1
     4    12    13    2
     5    13    14    1
     6    14     1    1
     7     1     2   ar
     8     2     3   ar
     9     3     4   ar
    10     4    19    1
    11    19    20    2
    12    19    21    1
    13    21    22    2
    14    22    23    1
    15    23    24    2
    16    24    25    1
    17    25    26    2
    18    26    30    1
    19    30    31    1
    20    31    32    1
    21    32    33    1
    22    33    34    1
    23    34    35    1
    24    35    36    1
    25    26    27    1
    26    27    28    1
    27    28    29    2
    28     4     5   ar
    29     5     6    1
    30    14    15    2
    31    15    16    1
    32    16    17    1
    33    17    18    2
    34    18    10    1
    35    17    12    1
    36     5     1   ar
    37    29    21    1
    38    28    23    1
    39    36    31    1
    40     6     7    1
    41     6     8    1
@<TRIPOS>MOLECULE
*****
 36 41 0 0 0
SMALL
GASTEIGER

@<TRIPOS>ATOM
      1 N         139.7388  143.9286  157.6328 N.ar    1  UNL1       -0.2166
      2 N         140.2798  144.0324  159.0280 N.ar    1  UNL1       -0.1622
      3 C         139.7197  142.8941  159.8283 C.ar    1  UNL1        0.1265
      4 C         138.8325  142.0867  158.9277 C.ar    1  UNL1        0.0924
      5 C         138.8443  142.7261  157.5709 C.ar    1  UNL1        0.1315
      6 N         138.0934  142.2471  156.3639 N.pl3   1  UNL1       -0.3425
      7 H         137.5286  141.4428  156.4227 H       1  UNL1        0.1437
      8 H         138.1653  142.7369  155.5130 H       1  UNL1        0.1437
      9 C         139.6701  150.2989  153.0461 C.3     1  UNL1        0.1367
     10 C         139.8669  148.9769  153.7270 C.2     1  UNL1        0.3518
     11 N         139.2203  148.5401  155.0081 N.2     1  UNL1       -0.0350
     12 C         139.6986  147.1529  155.3193 C.2     1  UNL1        0.2332
     13 C         139.3979  146.2184  156.4534 C.2     1  UNL1        0.0690
     14 C         140.0394  144.8632  156.4987 C.2     1  UNL1        0.0842
     15 C         140.9816  144.4427  155.4099 C.2     1  UNL1        0.0020
     16 C         141.2823  145.3772  154.2759 C.3     1  UNL1        0.1053
     17 C         140.6408  146.7323  154.2305 C.2     1  UNL1        0.2175
     18 N         140.7447  147.8596  153.2465 N.2     1  UNL1       -0.0389
     19 C         138.0677  140.8561  159.3158 C.2     1  UNL1        0.2173
     20 O         137.1515  140.1991  158.3263 O.2     1  UNL1       -0.2848
     21 C         138.2192  140.2823  160.6935 C.2     1  UNL1        0.1199
     22 C         138.6893  138.8970  161.0248 C.2     1  UNL1        0.0235
     23 C         138.6878  138.7517  162.5178 C.2     1  UNL1        0.0155
     24 C         139.0545  137.6071  163.4152 C.2     1  UNL1        0.0006
     25 C         138.9501  137.7581  164.9040 C.2     1  UNL1       -0.0067
     26 C         138.4791  139.0536  165.4952 C.2     1  UNL1       -0.0223
     27 C         138.1124  140.1982  164.5978 C.3     1  UNL1        0.0691
     28 C         138.2167  140.0473  163.1091 C.2     1  UNL1        0.0632
     29 N         137.9271  140.9932  161.9816 N.2     1  UNL1       -0.2461
     30 C         138.3747  139.2045  166.9840 C.3     1  UNL1        0.0954
     31 N         139.5047  139.8177  167.7567 N.3     1  UNL1       -0.2649
     32 C         139.2898  140.2643  169.1724 C.3     1  UNL1        0.1049
     33 C         140.4198  140.8775  169.9451 C.3     1  UNL1        0.1595
     34 O         141.7646  141.0441  169.3021 O.3     1  UNL1       -0.3508
     35 C         141.9796  140.5975  167.8864 C.3     1  UNL1        0.1595
     36 C         140.8496  139.9843  167.1137 C.3     1  UNL1        0.1049
@<TRIPOS>BOND
     1     9    10    1
     2    10    11    2
     3    11    12    1
     4    12    13    2
     5    13    14    1
     6    14     1    1
     7     1     2   ar
     8     2     3   ar
     9     3     4   ar
    10     4    19    1
    11    19    20    2
    12    19    21    1
    13    21    22    2
    14    22    23    1
    15    23    24    2
    16    24    25    1
    17    25    26    2
    18    26    30    1
    19    30    31    1
    20    31    32    1
    21    32    33    1
    22    33    34    1
    23    34    35    1
    24    35    36    1
    25    26    27    1
    26    27    28    1
    27    28    29    2
    28     4     5   ar
    29     5     6    1
    30    14    15    2
    31    15    16    1
    32    16    17    1
    33    17    18    2
    34    18    10    1
    35    17    12    1
    36     5     1   ar
    37    29    21    1
    38    28    23    1
    39    36    31    1
    40     6     7    1
    41     6     8    1
@<TRIPOS>MOLECULE
*****
 36 41 0 0 0
SMALL
GASTEIGER

@<TRIPOS>ATOM
      1 N         140.8279  138.6023  160.8430 N.ar    1  UNL1       -0.2166
      2 N         139.4668  138.8138  160.2493 N.ar    1  UNL1       -0.1622
      3 C         139.5852  138.6822  158.7598 C.ar    1  UNL1        0.1265
      4 C         141.0197  138.3894  158.4329 C.ar    1  UNL1        0.0924
      5 C         141.7876  138.3400  159.7205 C.ar    1  UNL1        0.1315
      6 N         143.2573  138.0748  159.8607 N.pl3   1  UNL1       -0.3425
      7 H         143.8070  137.9131  159.0601 H       1  UNL1        0.1437
      8 H         143.6723  138.0626  160.7534 H       1  UNL1        0.1437
      9 C         142.7871  141.3515  167.9301 C.3     1  UNL1        0.1367
     10 C         142.4123  140.5694  166.7062 C.2     1  UNL1        0.3518
     11 N         142.1646  141.1358  165.3395 N.2     1  UNL1       -0.0350
     12 C         141.8186  140.0000  164.4228 C.2     1  UNL1        0.2332
     13 C         141.4771  139.9569  162.9629 C.2     1  UNL1        0.0690
     14 C         141.1695  138.6454  162.3031 C.2     1  UNL1        0.0842
     15 C         141.2033  137.3771  163.1032 C.2     1  UNL1        0.0020
     16 C         141.5448  137.4203  164.5631 C.3     1  UNL1        0.1053
     17 C         141.8525  138.7317  165.2229 C.2     1  UNL1        0.2175
     18 N         142.2194  139.0836  166.6341 N.2     1  UNL1       -0.0389
     19 C         141.5865  138.1823  157.0597 C.2     1  UNL1        0.2173
     20 O         141.6909  139.3381  156.1093 O.2     1  UNL1       -0.2848
     21 C         142.0489  136.8195  156.6369 C.2     1  UNL1        0.1199
     22 C         141.5571  136.0517  155.4457 C.2     1  UNL1        0.0235
     23 C         142.2886  134.7428  155.4037 C.2     1  UNL1        0.0155
     24 C         142.2172  133.5832  154.4550 C.2     1  UNL1        0.0006
     25 C         143.0896  132.3823  154.6714 C.2     1  UNL1       -0.0067
     26 C         144.0334  132.3411  155.8365 C.2     1  UNL1       -0.0223
     27 C         144.1048  133.5008  156.7852 C.3     1  UNL1        0.0691
     28 C         143.2325  134.7016  156.5688 C.2     1  UNL1        0.0632
     29 N         143.0843  135.9850  157.3309 N.2     1  UNL1       -0.2461
     30 C         144.9058  131.1403  156.0529 C.3     1  UNL1        0.0954
     31 N         144.3998  129.9812  156.8593 N.3     1  UNL1       -0.2649
     32 C         144.5575  129.9796  158.3510 C.3     1  UNL1        0.1049
     33 C         144.0515  128.8205  159.1574 C.3     1  UNL1        0.1595
     34 O         143.3877  127.6630  158.4723 O.3     1  UNL1       -0.3508
     35 C         143.2300  127.6645  156.9806 C.3     1  UNL1        0.1595
     36 C         143.7360  128.8236  156.1741 C.3     1  UNL1        0.1049
@<TRIPOS>BOND
     1     9    10    1
     2    10    11    2
     3    11    12    1
     4    12    13    2
     5    13    14    1
     6    14     1    1
     7     1     2   ar
     8     2     3   ar
     9     3     4   ar
    10     4    19    1
    11    19    20    2
    12    19    21    1
    13    21    22    2
    14    22    23    1
    15    23    24    2
    16    24    25    1
    17    25    26    2
    18    26    30    1
    19    30    31    1
    20    31    32    1
    21    32    33    1
    22    33    34    1
    23    34    35    1
    24    35    36    1
    25    26    27    1
    26    27    28    1
    27    28    29    2
    28     4     5   ar
    29     5     6    1
    30    14    15    2
    31    15    16    1
    32    16    17    1
    33    17    18    2
    34    18    10    1
    35    17    12    1
    36     5     1   ar
    37    29    21    1
    38    28    23    1
    39    36    31    1
    40     6     7    1
    41     6     8    1
@<TRIPOS>MOLECULE
*****
 36 41 0 0 0
SMALL
GASTEIGER

@<TRIPOS>ATOM
      1 N         139.9955  138.7813  161.1404 N.ar    1  UNL1       -0.2166
      2 N         138.9129  138.8751  160.1064 N.ar    1  UNL1       -0.1622
      3 C         139.5523  138.7630  158.7542 C.ar    1  UNL1        0.1265
      4 C         141.0303  138.6000  158.9524 C.ar    1  UNL1        0.0924
      5 C         141.3041  138.6113  160.4272 C.ar    1  UNL1        0.1315
      6 N         142.6503  138.4762  161.0749 N.pl3   1  UNL1       -0.3425
      7 H         143.4555  138.3682  160.5189 H       1  UNL1        0.1437
      8 H         142.7286  138.4956  162.0561 H       1  UNL1        0.1437
      9 C         140.1639  141.3971  168.5399 C.3     1  UNL1        0.1367
     10 C         140.0016  140.6669  167.2397 C.2     1  UNL1        0.3518
     11 N         140.4445  141.1559  165.8926 N.2     1  UNL1       -0.0350
     12 C         140.0845  140.1108  164.8786 C.2     1  UNL1        0.2332
     13 C         140.2767  140.0460  163.3924 C.2     1  UNL1        0.0690
     14 C         139.8034  138.8462  162.6267 C.2     1  UNL1        0.0842
     15 C         139.1379  137.7112  163.3471 C.2     1  UNL1        0.0020
     16 C         138.9457  137.7761  164.8333 C.3     1  UNL1        0.1053
     17 C         139.4190  138.9759  165.5990 C.2     1  UNL1        0.2175
     18 N         139.3678  139.3196  167.0582 N.2     1  UNL1       -0.0389
     19 C         142.0544  138.4516  157.8666 C.2     1  UNL1        0.2173
     20 O         142.8137  139.6514  157.3828 O.2     1  UNL1       -0.2848
     21 C         142.3192  137.1035  157.2645 C.2     1  UNL1        0.1199
     22 C         141.6323  136.5239  156.0636 C.2     1  UNL1        0.0235
     23 C         142.2060  135.1605  155.8146 C.2     1  UNL1        0.0155
     24 C         141.9146  134.1245  154.7697 C.2     1  UNL1        0.0006
     25 C         142.6647  132.8255  154.7718 C.2     1  UNL1       -0.0067
     26 C         143.7062  132.5626  155.8187 C.2     1  UNL1       -0.0223
     27 C         143.9976  133.5986  156.8636 C.3     1  UNL1        0.0691
     28 C         143.2475  134.8975  156.8615 C.2     1  UNL1        0.0632
     29 N         143.3175  136.0984  157.7576 N.2     1  UNL1       -0.2461
     30 C         144.4563  131.2636  155.8208 C.3     1  UNL1        0.0954
     31 N         144.0348  130.1556  156.7398 N.3     1  UNL1       -0.2649
     32 C         143.0834  129.1015  156.2568 C.3     1  UNL1        0.1049
     33 C         142.6620  127.9935  157.1758 C.3     1  UNL1        0.1595
     34 O         143.1919  127.9396  158.5780 O.3     1  UNL1       -0.3508
     35 C         144.1434  128.9938  159.0611 C.3     1  UNL1        0.1595
     36 C         144.5648  130.1018  158.1421 C.3     1  UNL1        0.1049
@<TRIPOS>BOND
     1     9    10    1
     2    10    11    2
     3    11    12    1
     4    12    13    2
     5    13    14    1
     6    14     1    1
     7     1     2   ar
     8     2     3   ar
     9     3     4   ar
    10     4    19    1
    11    19    20    2
    12    19    21    1
    13    21    22    2
    14    22    23    1
    15    23    24    2
    16    24    25    1
    17    25    26    2
    18    26    30    1
    19    30    31    1
    20    31    32    1
    21    32    33    1
    22    33    34    1
    23    34    35    1
    24    35    36    1
    25    26    27    1
    26    27    28    1
    27    28    29    2
    28     4     5   ar
    29     5     6    1
    30    14    15    2
    31    15    16    1
    32    16    17    1
    33    17    18    2
    34    18    10    1
    35    17    12    1
    36     5     1   ar
    37    29    21    1
    38    28    23    1
    39    36    31    1
    40     6     7    1
    41     6     8    1
@<TRIPOS>MOLECULE
*****
 36 41 0 0 0
SMALL
GASTEIGER

@<TRIPOS>ATOM
      1 N         143.4080  142.2087  157.2247 N.ar    1  UNL1       -0.2166
      2 N         142.7745  140.9202  157.6590 N.ar    1  UNL1       -0.1622
      3 C         141.6124  141.2515  158.5477 C.ar    1  UNL1        0.1265
      4 C         141.5276  142.7447  158.6626 C.ar    1  UNL1        0.0924
      5 C         142.6373  143.3363  157.8450 C.ar    1  UNL1        0.1315
      6 N         142.9257  144.7986  157.6771 N.pl3   1  UNL1       -0.3425
      7 H         142.3598  145.4668  158.1272 H       1  UNL1        0.1437
      8 H         143.6809  145.0903  157.1169 H       1  UNL1        0.1437
      9 C         150.8091  141.9264  154.6234 C.3     1  UNL1        0.1367
     10 C         149.3370  142.0898  154.8604 C.2     1  UNL1        0.3518
     11 N         148.6019  141.7354  156.1191 N.2     1  UNL1       -0.0350
     12 C         147.1521  142.0627  155.9170 C.2     1  UNL1        0.2332
     13 C         145.9578  141.9258  156.8141 C.2     1  UNL1        0.0690
     14 C         144.6024  142.3456  156.3277 C.2     1  UNL1        0.0842
     15 C         144.4413  142.9023  154.9441 C.2     1  UNL1        0.0020
     16 C         145.6357  143.0393  154.0471 C.3     1  UNL1        0.1053
     17 C         146.9911  142.6195  154.5335 C.2     1  UNL1        0.2175
     18 N         148.3414  142.6362  153.8805 N.2     1  UNL1       -0.0389
     19 C         140.5115  143.5116  159.4559 C.2     1  UNL1        0.2173
     20 O         139.4989  144.3654  158.7517 O.2     1  UNL1       -0.2848
     21 C         140.5079  143.4248  160.9534 C.2     1  UNL1        0.1199
     22 C         139.5033  144.0565  161.8708 C.2     1  UNL1        0.0235
     23 C         139.8829  143.7131  163.2808 C.2     1  UNL1        0.0155
     24 C         139.2603  144.0599  164.6006 C.2     1  UNL1        0.0006
     25 C         139.8768  143.5627  165.8745 C.2     1  UNL1       -0.0067
     26 C         141.1160  142.7188  165.8284 C.2     1  UNL1       -0.0223
     27 C         141.7386  142.3720  164.5086 C.3     1  UNL1        0.0691
     28 C         141.1221  142.8692  163.2348 C.2     1  UNL1        0.0632
     29 N         141.5084  142.6910  161.7964 N.2     1  UNL1       -0.2461
     30 C         141.7326  142.2216  167.1023 C.3     1  UNL1        0.0954
     31 N         140.8770  142.0055  168.3152 N.3     1  UNL1       -0.2649
     32 C         140.7425  143.0913  169.3413 C.3     1  UNL1        0.1049
     33 C         139.8869  142.8752  170.5542 C.3     1  UNL1        0.1595
     34 O         139.1658  141.5733  170.7411 O.3     1  UNL1       -0.3508
     35 C         139.3002  140.4875  169.7150 C.3     1  UNL1        0.1595
     36 C         140.1558  140.7036  168.5021 C.3     1  UNL1        0.1049
@<TRIPOS>BOND
     1     9    10    1
     2    10    11    2
     3    11    12    1
     4    12    13    2
     5    13    14    1
     6    14     1    1
     7     1     2   ar
     8     2     3   ar
     9     3     4   ar
    10     4    19    1
    11    19    20    2
    12    19    21    1
    13    21    22    2
    14    22    23    1
    15    23    24    2
    16    24    25    1
    17    25    26    2
    18    26    30    1
    19    30    31    1
    20    31    32    1
    21    32    33    1
    22    33    34    1
    23    34    35    1
    24    35    36    1
    25    26    27    1
    26    27    28    1
    27    28    29    2
    28     4     5   ar
    29     5     6    1
    30    14    15    2
    31    15    16    1
    32    16    17    1
    33    17    18    2
    34    18    10    1
    35    17    12    1
    36     5     1   ar
    37    29    21    1
    38    28    23    1
    39    36    31    1
    40     6     7    1
    41     6     8    1
