@<TRIPOS>MOLECULE
*****
 33 36 0 0 0
SMALL
GASTEIGER

@<TRIPOS>ATOM
      1 C         139.9817  143.7508  162.2728 C.3     1  UNL1        0.0570
      2 C         140.1280  144.4157  163.6095 C.3     1  UNL1        0.0331
      3 C         141.4933  144.6552  164.1826 C.3     1  UNL1        0.0735
      4 N         142.7124  144.2299  163.4190 N.3     1  UNL1       -0.2710
      5 C         142.5661  143.5651  162.0824 C.3     1  UNL1        0.0735
      6 C         141.2008  143.3256  161.5093 C.3     1  UNL1        0.0331
      7 N         138.6164  143.5113  161.6997 N.3     1  UNL1       -0.2947
      8 H         138.1304  144.4080  161.7120 H       1  UNL1        0.1235
      9 C         137.6987  142.5127  162.3403 C.3     1  UNL1        0.0972
     10 C         139.9037  137.3703  164.5069 C.3     1  UNL1        0.0528
     11 C         139.3524  138.6559  163.9653 C.ar    1  UNL1        0.0689
     12 N         139.6870  139.0856  162.5677 N.ar    1  UNL1       -0.2477
     13 C         139.1358  140.3712  162.0260 C.ar    1  UNL1        0.0955
     14 C         138.2499  141.2271  162.8820 C.ar    1  UNL1        0.0135
     15 C         137.9153  140.7974  164.2796 C.ar    1  UNL1        0.0101
     16 C         138.4666  139.5118  164.8212 C.ar    1  UNL1        0.0817
     17 C         138.1319  139.0821  166.2189 C.1     1  UNL1        0.1016
     18 N         137.7974  138.6524  167.6166 N.1     1  UNL1       -0.1908
     19 C         144.0777  144.4694  163.9921 C.3     1  UNL1        0.0970
     20 C         144.6355  143.5292  165.0193 C.3     1  UNL1        0.1263
     21 N         144.2581  142.0777  164.9909 N.ar    1  UNL1       -0.2941
     22 C         144.9360  141.1452  164.0313 C.ar    1  UNL1        0.2610
     23 O         145.9912  141.6641  163.1000 O.2     1  UNL1       -0.2670
     24 C         144.5586  139.6937  164.0028 C.ar    1  UNL1        0.0608
     25 C         143.5034  139.1747  164.9340 C.ar    1  UNL1        0.0063
     26 C         142.8254  140.1073  165.8937 C.ar    1  UNL1        0.0161
     27 C         141.7702  139.5883  166.8249 C.ar    1  UNL1        0.0021
     28 C         141.0924  140.5208  167.7845 C.ar    1  UNL1        0.0104
     29 C         141.4698  141.9723  167.8129 C.ar    1  UNL1        0.0699
     30 C         142.5250  142.4913  166.8817 C.ar    1  UNL1        0.0275
     31 C         143.2028  141.5587  165.9221 C.ar    1  UNL1        0.0631
     32 C         140.7919  142.9048  168.7726 C.1     1  UNL1        0.1005
     33 N         140.1140  143.8373  169.7322 N.1     1  UNL1       -0.1908
@<TRIPOS>BOND
     1    10    11    1
     2    11    12   ar
     3    12    13   ar
     4    13    14   ar
     5    14     9    1
     6     9     7    1
     7     7     1    1
     8     1     2    1
     9     2     3    1
    10     3     4    1
    11     4    19    1
    12    19    20    1
    13    20    21    1
    14    21    22   ar
    15    22    23    2
    16    22    24   ar
    17    24    25   ar
    18    25    26   ar
    19    26    27   ar
    20    27    28   ar
    21    28    29   ar
    22    29    32    1
    23    32    33    3
    24    29    30   ar
    25    30    31   ar
    26     4     5    1
    27     5     6    1
    28    14    15   ar
    29    15    16   ar
    30    16    17    1
    31    17    18    3
    32    16    11   ar
    33     6     1    1
    34    31    21   ar
    35    31    26   ar
    36     7     8    1
@<TRIPOS>MOLECULE
*****
 33 36 0 0 0
SMALL
GASTEIGER

@<TRIPOS>ATOM
      1 C         143.8735  143.5335  162.3612 C.3     1  UNL1        0.0570
      2 C         142.7781  143.4214  161.3426 C.3     1  UNL1        0.0331
      3 C         141.4392  144.0428  161.6095 C.3     1  UNL1        0.0735
      4 N         141.1957  144.7763  162.8951 N.3     1  UNL1       -0.2710
      5 C         142.2911  144.8884  163.9137 C.3     1  UNL1        0.0735
      6 C         143.6299  144.2670  163.6468 C.3     1  UNL1        0.0331
      7 N         145.2123  142.9121  162.0943 N.3     1  UNL1       -0.2947
      8 H         145.2175  142.6340  161.1130 H       1  UNL1        0.1235
      9 C         145.6558  141.7174  162.8854 C.3     1  UNL1        0.0972
     10 C         141.6382  137.6201  164.6379 C.3     1  UNL1        0.0528
     11 C         142.6426  138.6444  164.1998 C.ar    1  UNL1        0.0689
     12 N         142.8606  138.9040  162.7386 N.ar    1  UNL1       -0.2477
     13 C         143.8650  139.9283  162.3005 C.ar    1  UNL1        0.0955
     14 C         144.6514  140.6931  163.3235 C.ar    1  UNL1        0.0135
     15 C         144.4334  140.4335  164.7847 C.ar    1  UNL1        0.0101
     16 C         143.4290  139.4092  165.2228 C.ar    1  UNL1        0.0817
     17 C         143.2110  139.1497  166.6841 C.1     1  UNL1        0.1016
     18 N         142.9931  138.8902  168.1453 N.1     1  UNL1       -0.1908
     19 C         139.8568  145.3977  163.1621 C.3     1  UNL1        0.0970
     20 C         138.8825  144.7160  164.0765 C.3     1  UNL1        0.1263
     21 N         138.7755  143.2199  164.0774 N.ar    1  UNL1       -0.2941
     22 C         138.2268  142.5064  162.8775 C.ar    1  UNL1        0.2610
     23 O         137.7850  143.2892  161.6765 O.2     1  UNL1       -0.2670
     24 C         138.1198  141.0103  162.8784 C.ar    1  UNL1        0.0608
     25 C         138.5616  140.2275  164.0793 C.ar    1  UNL1        0.0063
     26 C         139.1104  140.9409  165.2793 C.ar    1  UNL1        0.0161
     27 C         139.5521  140.1582  166.4801 C.ar    1  UNL1        0.0021
     28 C         140.1009  140.8716  167.6800 C.ar    1  UNL1        0.0104
     29 C         140.2078  142.3678  167.6791 C.ar    1  UNL1        0.0699
     30 C         139.7661  143.1505  166.4783 C.ar    1  UNL1        0.0275
     31 C         139.2173  142.4371  165.2783 C.ar    1  UNL1        0.0631
     32 C         140.7566  143.0812  168.8791 C.1     1  UNL1        0.1005
     33 N         141.3054  143.7946  170.0791 N.1     1  UNL1       -0.1908
@<TRIPOS>BOND
     1    10    11    1
     2    11    12   ar
     3    12    13   ar
     4    13    14   ar
     5    14     9    1
     6     9     7    1
     7     7     1    1
     8     1     2    1
     9     2     3    1
    10     3     4    1
    11     4    19    1
    12    19    20    1
    13    20    21    1
    14    21    22   ar
    15    22    23    2
    16    22    24   ar
    17    24    25   ar
    18    25    26   ar
    19    26    27   ar
    20    27    28   ar
    21    28    29   ar
    22    29    32    1
    23    32    33    3
    24    29    30   ar
    25    30    31   ar
    26     4     5    1
    27     5     6    1
    28    14    15   ar
    29    15    16   ar
    30    16    17    1
    31    17    18    3
    32    16    11   ar
    33     6     1    1
    34    31    21   ar
    35    31    26   ar
    36     7     8    1
@<TRIPOS>MOLECULE
*****
 33 36 0 0 0
SMALL
GASTEIGER

@<TRIPOS>ATOM
      1 C         142.3932  138.2752  162.7638 C.3     1  UNL1        0.0570
      2 C         142.8796  138.3997  164.1773 C.3     1  UNL1        0.0331
      3 C         143.9227  139.4204  164.5243 C.3     1  UNL1        0.0735
      4 N         144.4793  140.3164  163.4578 N.3     1  UNL1       -0.2710
      5 C         143.9929  140.1918  162.0444 C.3     1  UNL1        0.0735
      6 C         142.9498  139.1712  161.6974 C.3     1  UNL1        0.0331
      7 N         141.3502  137.2545  162.4168 N.3     1  UNL1       -0.2947
      8 H         141.2088  137.3092  161.4081 H       1  UNL1        0.1235
      9 C         139.9918  137.3255  163.0490 C.3     1  UNL1        0.0972
     10 C         137.5134  142.6578  164.2428 C.3     1  UNL1        0.0528
     11 C         138.1330  141.3247  163.9443 C.ar    1  UNL1        0.0689
     12 N         138.2739  140.3025  165.0330 N.ar    1  UNL1       -0.2477
     13 C         138.8935  138.9695  164.7345 C.ar    1  UNL1        0.0955
     14 C         139.3722  138.6586  163.3474 C.ar    1  UNL1        0.0135
     15 C         139.2313  139.6808  162.2587 C.ar    1  UNL1        0.0101
     16 C         138.6117  141.0138  162.5572 C.ar    1  UNL1        0.0817
     17 C         138.4708  142.0360  161.4684 C.1     1  UNL1        0.1016
     18 N         138.3300  143.0582  160.3797 N.1     1  UNL1       -0.1908
     19 C         145.5223  141.3370  163.8048 C.3     1  UNL1        0.0970
     20 C         145.1133  142.6656  164.3686 C.3     1  UNL1        0.1263
     21 N         143.6844  143.1122  164.2751 N.ar    1  UNL1       -0.2941
     22 C         143.2014  143.8290  163.0493 C.ar    1  UNL1        0.2610
     23 O         144.1473  144.0993  161.9169 O.2     1  UNL1       -0.2670
     24 C         141.7725  144.2757  162.9557 C.ar    1  UNL1        0.0608
     25 C         140.8266  144.0054  164.0880 C.ar    1  UNL1        0.0063
     26 C         141.3096  143.2885  165.3140 C.ar    1  UNL1        0.0161
     27 C         140.3637  143.0182  166.4463 C.ar    1  UNL1        0.0021
     28 C         140.8467  142.3013  167.6721 C.ar    1  UNL1        0.0104
     29 C         142.2756  141.8547  167.7657 C.ar    1  UNL1        0.0699
     30 C         143.2215  142.1250  166.6334 C.ar    1  UNL1        0.0275
     31 C         142.7385  142.8419  165.4075 C.ar    1  UNL1        0.0631
     32 C         142.7586  141.1378  168.9916 C.1     1  UNL1        0.1005
     33 N         143.2416  140.4209  170.2174 N.1     1  UNL1       -0.1908
@<TRIPOS>BOND
     1    10    11    1
     2    11    12   ar
     3    12    13   ar
     4    13    14   ar
     5    14     9    1
     6     9     7    1
     7     7     1    1
     8     1     2    1
     9     2     3    1
    10     3     4    1
    11     4    19    1
    12    19    20    1
    13    20    21    1
    14    21    22   ar
    15    22    23    2
    16    22    24   ar
    17    24    25   ar
    18    25    26   ar
    19    26    27   ar
    20    27    28   ar
    21    28    29   ar
    22    29    32    1
    23    32    33    3
    24    29    30   ar
    25    30    31   ar
    26     4     5    1
    27     5     6    1
    28    14    15   ar
    29    15    16   ar
    30    16    17    1
    31    17    18    3
    32    16    11   ar
    33     6     1    1
    34    31    21   ar
    35    31    26   ar
    36     7     8    1
@<TRIPOS>MOLECULE
*****
 33 36 0 0 0
SMALL
GASTEIGER

@<TRIPOS>ATOM
      1 C         138.1287  140.0271  162.0819 C.3     1  UNL1        0.0570
      2 C         137.8795  140.3031  163.5351 C.3     1  UNL1        0.0331
      3 C         137.7606  141.7175  164.0202 C.3     1  UNL1        0.0735
      4 N         137.8910  142.8559  163.0522 N.3     1  UNL1       -0.2710
      5 C         138.1403  142.5799  161.5990 C.3     1  UNL1        0.0735
      6 C         138.2591  141.1655  161.1139 C.3     1  UNL1        0.0331
      7 N         138.2476  138.6128  161.5967 N.3     1  UNL1       -0.2947
      8 H         137.7621  138.0267  162.2759 H       1  UNL1        0.1235
      9 C         139.6020  138.0027  161.3882 C.3     1  UNL1        0.0972
     10 C         143.8620  138.6571  165.5623 C.3     1  UNL1        0.0528
     11 C         142.7970  138.4935  164.5188 C.ar    1  UNL1        0.0689
     12 N         141.6216  137.5992  164.7805 N.ar    1  UNL1       -0.2477
     13 C         140.5566  137.4356  163.7370 C.ar    1  UNL1        0.0955
     14 C         140.6670  138.1663  162.4317 C.ar    1  UNL1        0.0135
     15 C         141.8424  139.0606  162.1700 C.ar    1  UNL1        0.0101
     16 C         142.9074  139.2242  163.2135 C.ar    1  UNL1        0.0817
     17 C         144.0829  140.1185  162.9517 C.1     1  UNL1        0.1016
     18 N         145.2583  141.0128  162.6899 N.1     1  UNL1       -0.1908
     19 C         137.7722  144.2703  163.5373 C.3     1  UNL1        0.0970
     20 C         138.8362  144.8524  164.4200 C.3     1  UNL1        0.1263
     21 N         140.2773  144.5102  164.1830 N.ar    1  UNL1       -0.2941
     22 C         141.0045  145.0977  163.0100 C.ar    1  UNL1        0.2610
     23 O         140.2907  146.0274  162.0740 O.2     1  UNL1       -0.2670
     24 C         142.4456  144.7555  162.7729 C.ar    1  UNL1        0.0608
     25 C         143.1595  143.8258  163.7089 C.ar    1  UNL1        0.0063
     26 C         142.4322  143.2382  164.8819 C.ar    1  UNL1        0.0161
     27 C         143.1461  142.3085  165.8179 C.ar    1  UNL1        0.0021
     28 C         142.4189  141.7210  166.9909 C.ar    1  UNL1        0.0104
     29 C         140.9778  142.0632  167.2279 C.ar    1  UNL1        0.0699
     30 C         140.2639  142.9929  166.2920 C.ar    1  UNL1        0.0275
     31 C         140.9912  143.5804  165.1190 C.ar    1  UNL1        0.0631
     32 C         140.2506  141.4756  168.4010 C.1     1  UNL1        0.1005
     33 N         139.5234  140.8882  169.5740 N.1     1  UNL1       -0.1908
@<TRIPOS>BOND
     1    10    11    1
     2    11    12   ar
     3    12    13   ar
     4    13    14   ar
     5    14     9    1
     6     9     7    1
     7     7     1    1
     8     1     2    1
     9     2     3    1
    10     3     4    1
    11     4    19    1
    12    19    20    1
    13    20    21    1
    14    21    22   ar
    15    22    23    2
    16    22    24   ar
    17    24    25   ar
    18    25    26   ar
    19    26    27   ar
    20    27    28   ar
    21    28    29   ar
    22    29    32    1
    23    32    33    3
    24    29    30   ar
    25    30    31   ar
    26     4     5    1
    27     5     6    1
    28    14    15   ar
    29    15    16   ar
    30    16    17    1
    31    17    18    3
    32    16    11   ar
    33     6     1    1
    34    31    21   ar
    35    31    26   ar
    36     7     8    1
@<TRIPOS>MOLECULE
*****
 33 36 0 0 0
SMALL
GASTEIGER

@<TRIPOS>ATOM
      1 C         138.3851  144.0345  162.7777 C.3     1  UNL1        0.0570
      2 C         138.5145  143.8163  164.2562 C.3     1  UNL1        0.0331
      3 C         138.4200  142.4299  164.8208 C.3     1  UNL1        0.0735
      4 N         138.1960  141.2616  163.9070 N.3     1  UNL1       -0.2710
      5 C         138.0665  141.4797  162.4286 C.3     1  UNL1        0.0735
      6 C         138.1611  142.8662  161.8640 C.3     1  UNL1        0.0331
      7 N         138.4796  145.4209  162.2131 N.3     1  UNL1       -0.2947
      8 H         138.0806  145.3847  161.2751 H       1  UNL1        0.1235
      9 C         139.8159  146.0909  162.0896 C.3     1  UNL1        0.0972
     10 C         144.8285  142.7945  162.0059 C.3     1  UNL1        0.0528
     11 C         143.5754  143.6186  162.0268 C.ar    1  UNL1        0.0689
     12 N         142.7530  143.7649  160.7809 N.ar    1  UNL1       -0.2477
     13 C         141.4999  144.5890  160.8019 C.ar    1  UNL1        0.0955
     14 C         141.0690  145.2668  162.0687 C.ar    1  UNL1        0.0135
     15 C         141.8914  145.1205  163.3146 C.ar    1  UNL1        0.0101
     16 C         143.1445  144.2964  163.2937 C.ar    1  UNL1        0.0817
     17 C         143.9669  144.1501  164.5397 C.1     1  UNL1        0.1016
     18 N         144.7892  144.0039  165.7856 N.1     1  UNL1       -0.1908
     19 C         138.1015  139.8751  164.4716 C.3     1  UNL1        0.0970
     20 C         138.6070  139.5928  165.8554 C.3     1  UNL1        0.1263
     21 N         140.0716  139.3659  166.0870 N.ar    1  UNL1       -0.2941
     22 C         140.8500  138.4830  165.1573 C.ar    1  UNL1        0.2610
     23 O         140.1639  137.8269  163.9959 O.2     1  UNL1       -0.2670
     24 C         142.3145  138.2561  165.3889 C.ar    1  UNL1        0.0608
     25 C         143.0006  138.9121  166.5503 C.ar    1  UNL1        0.0063
     26 C         142.2222  139.7951  167.4801 C.ar    1  UNL1        0.0161
     27 C         142.9083  140.4512  168.6415 C.ar    1  UNL1        0.0021
     28 C         142.1299  141.3341  169.5712 C.ar    1  UNL1        0.0104
     29 C         140.6653  141.5610  169.3396 C.ar    1  UNL1        0.0699
     30 C         139.9792  140.9049  168.1782 C.ar    1  UNL1        0.0275
     31 C         140.7577  140.0220  167.2485 C.ar    1  UNL1        0.0631
     32 C         139.8869  142.4439  170.2694 C.1     1  UNL1        0.1005
     33 N         139.1085  143.3269  171.1991 N.1     1  UNL1       -0.1908
@<TRIPOS>BOND
     1    10    11    1
     2    11    12   ar
     3    12    13   ar
     4    13    14   ar
     5    14     9    1
     6     9     7    1
     7     7     1    1
     8     1     2    1
     9     2     3    1
    10     3     4    1
    11     4    19    1
    12    19    20    1
    13    20    21    1
    14    21    22   ar
    15    22    23    2
    16    22    24   ar
    17    24    25   ar
    18    25    26   ar
    19    26    27   ar
    20    27    28   ar
    21    28    29   ar
    22    29    32    1
    23    32    33    3
    24    29    30   ar
    25    30    31   ar
    26     4     5    1
    27     5     6    1
    28    14    15   ar
    29    15    16   ar
    30    16    17    1
    31    17    18    3
    32    16    11   ar
    33     6     1    1
    34    31    21   ar
    35    31    26   ar
    36     7     8    1
@<TRIPOS>MOLECULE
*****
 33 36 0 0 0
SMALL
GASTEIGER

@<TRIPOS>ATOM
      1 C         139.9741  144.3705  162.2884 C.3     1  UNL1        0.0570
      2 C         140.7707  145.1213  163.3141 C.3     1  UNL1        0.0331
      3 C         142.2596  144.9514  163.3789 C.3     1  UNL1        0.0735
      4 N         142.9520  144.0309  162.4180 N.3     1  UNL1       -0.2710
      5 C         142.1555  143.2802  161.3924 C.3     1  UNL1        0.0735
      6 C         140.6665  143.4501  161.3276 C.3     1  UNL1        0.0331
      7 N         138.4852  144.5404  162.2236 N.3     1  UNL1       -0.2947
      8 H         138.2965  145.5347  162.3502 H       1  UNL1        0.1235
      9 C         137.6038  143.8059  163.1898 C.3     1  UNL1        0.0972
     10 C         138.6645  138.0309  164.4247 C.3     1  UNL1        0.0528
     11 C         138.3993  139.4747  164.1160 C.ar    1  UNL1        0.0689
     12 N         137.9668  139.8798  162.7380 N.ar    1  UNL1       -0.2477
     13 C         137.7017  141.3235  162.4293 C.ar    1  UNL1        0.0955
     14 C         137.8690  142.3621  163.4985 C.ar    1  UNL1        0.0135
     15 C         138.3014  141.9570  164.8765 C.ar    1  UNL1        0.0101
     16 C         138.5666  140.5133  165.1852 C.ar    1  UNL1        0.0817
     17 C         138.9990  140.1082  166.5633 C.1     1  UNL1        0.1016
     18 N         139.4315  139.7031  167.9412 N.1     1  UNL1       -0.1908
     19 C         144.4410  143.8610  162.4828 C.3     1  UNL1        0.0970
     20 C         145.0345  142.7526  163.3009 C.3     1  UNL1        0.1263
     21 N         144.2615  142.1691  164.4463 N.ar    1  UNL1       -0.2941
     22 C         144.1648  142.9157  165.7437 C.ar    1  UNL1        0.2610
     23 O         144.8412  144.2460  165.8957 O.2     1  UNL1       -0.2670
     24 C         143.3917  142.3322  166.8890 C.ar    1  UNL1        0.0608
     25 C         142.7154  141.0021  166.7371 C.ar    1  UNL1        0.0063
     26 C         142.8120  140.2553  165.4397 C.ar    1  UNL1        0.0161
     27 C         142.1356  138.9252  165.2878 C.ar    1  UNL1        0.0021
     28 C         142.2323  138.1785  163.9904 C.ar    1  UNL1        0.0104
     29 C         143.0054  138.7620  162.8450 C.ar    1  UNL1        0.0699
     30 C         143.6817  140.0922  162.9970 C.ar    1  UNL1        0.0275
     31 C         143.5851  140.8389  164.2943 C.ar    1  UNL1        0.0631
     32 C         143.1020  138.0153  161.5476 C.1     1  UNL1        0.1005
     33 N         143.1987  137.2687  160.2503 N.1     1  UNL1       -0.1908
@<TRIPOS>BOND
     1    10    11    1
     2    11    12   ar
     3    12    13   ar
     4    13    14   ar
     5    14     9    1
     6     9     7    1
     7     7     1    1
     8     1     2    1
     9     2     3    1
    10     3     4    1
    11     4    19    1
    12    19    20    1
    13    20    21    1
    14    21    22   ar
    15    22    23    2
    16    22    24   ar
    17    24    25   ar
    18    25    26   ar
    19    26    27   ar
    20    27    28   ar
    21    28    29   ar
    22    29    32    1
    23    32    33    3
    24    29    30   ar
    25    30    31   ar
    26     4     5    1
    27     5     6    1
    28    14    15   ar
    29    15    16   ar
    30    16    17    1
    31    17    18    3
    32    16    11   ar
    33     6     1    1
    34    31    21   ar
    35    31    26   ar
    36     7     8    1
@<TRIPOS>MOLECULE
*****
 33 36 0 0 0
SMALL
GASTEIGER

@<TRIPOS>ATOM
      1 C         140.6456  144.5349  163.8189 C.3     1  UNL1        0.0570
      2 C         141.5015  143.6571  164.6832 C.3     1  UNL1        0.0331
      3 C         142.7724  143.0769  164.1371 C.3     1  UNL1        0.0735
      4 N         143.1874  143.3745  162.7266 N.3     1  UNL1       -0.2710
      5 C         142.3315  144.2523  161.8624 C.3     1  UNL1        0.0735
      6 C         141.0606  144.8325  162.4085 C.3     1  UNL1        0.0331
      7 N         139.3748  145.1151  164.3650 N.3     1  UNL1       -0.2947
      8 H         139.4807  145.1541  165.3787 H       1  UNL1        0.1235
      9 C         138.0638  144.4392  164.0923 C.3     1  UNL1        0.0972
     10 C         137.9600  138.7460  162.2009 C.3     1  UNL1        0.0528
     11 C         137.9859  140.1693  162.6738 C.ar    1  UNL1        0.0689
     12 N         137.8825  141.2908  161.6830 N.ar    1  UNL1       -0.2477
     13 C         137.9084  142.7141  162.1559 C.ar    1  UNL1        0.0955
     14 C         138.0378  143.0159  163.6195 C.ar    1  UNL1        0.0135
     15 C         138.1413  141.8944  164.6102 C.ar    1  UNL1        0.0101
     16 C         138.1153  140.4712  164.1373 C.ar    1  UNL1        0.0817
     17 C         138.2188  139.3497  165.1282 C.1     1  UNL1        0.1016
     18 N         138.3222  138.2282  166.1189 N.1     1  UNL1       -0.1908
     19 C         144.4583  142.7943  162.1805 C.3     1  UNL1        0.0970
     20 C         144.7427  141.3299  162.3383 C.3     1  UNL1        0.1263
     21 N         143.7514  140.3164  161.8485 N.ar    1  UNL1       -0.2941
     22 C         143.4820  140.1800  160.3792 C.ar    1  UNL1        0.2610
     23 O         144.2039  141.0572  159.3997 O.2     1  UNL1       -0.2670
     24 C         142.4906  139.1664  159.8894 C.ar    1  UNL1        0.0608
     25 C         141.7687  138.2892  160.8688 C.ar    1  UNL1        0.0063
     26 C         142.0381  138.4256  162.3382 C.ar    1  UNL1        0.0161
     27 C         141.3162  137.5484  163.3176 C.ar    1  UNL1        0.0021
     28 C         141.5857  137.6848  164.7869 C.ar    1  UNL1        0.0104
     29 C         142.5770  138.6983  165.2767 C.ar    1  UNL1        0.0699
     30 C         143.2989  139.5755  164.2972 C.ar    1  UNL1        0.0275
     31 C         143.0295  139.4391  162.8280 C.ar    1  UNL1        0.0631
     32 C         142.8464  138.8347  166.7460 C.1     1  UNL1        0.1005
     33 N         143.1159  138.9711  168.2153 N.1     1  UNL1       -0.1908
@<TRIPOS>BOND
     1    10    11    1
     2    11    12   ar
     3    12    13   ar
     4    13    14   ar
     5    14     9    1
     6     9     7    1
     7     7     1    1
     8     1     2    1
     9     2     3    1
    10     3     4    1
    11     4    19    1
    12    19    20    1
    13    20    21    1
    14    21    22   ar
    15    22    23    2
    16    22    24   ar
    17    24    25   ar
    18    25    26   ar
    19    26    27   ar
    20    27    28   ar
    21    28    29   ar
    22    29    32    1
    23    32    33    3
    24    29    30   ar
    25    30    31   ar
    26     4     5    1
    27     5     6    1
    28    14    15   ar
    29    15    16   ar
    30    16    17    1
    31    17    18    3
    32    16    11   ar
    33     6     1    1
    34    31    21   ar
    35    31    26   ar
    36     7     8    1
@<TRIPOS>MOLECULE
*****
 33 36 0 0 0
SMALL
GASTEIGER

@<TRIPOS>ATOM
      1 C         137.8341  142.8785  162.4670 C.3     1  UNL1        0.0570
      2 C         137.7989  142.1112  163.7555 C.3     1  UNL1        0.0331
      3 C         137.9597  140.6199  163.7449 C.3     1  UNL1        0.0735
      4 N         138.1557  139.8958  162.4459 N.3     1  UNL1       -0.2710
      5 C         138.1908  140.6631  161.1575 C.3     1  UNL1        0.0735
      6 C         138.0300  142.1544  161.1680 C.3     1  UNL1        0.0331
      7 N         137.6733  144.3698  162.4776 N.3     1  UNL1       -0.2947
      8 H         137.4785  144.6518  161.5169 H       1  UNL1        0.1235
      9 C         138.7920  145.2413  162.9662 C.3     1  UNL1        0.0972
     10 C         144.4876  143.4974  162.2461 C.3     1  UNL1        0.0528
     11 C         143.0637  143.9333  162.4261 C.ar    1  UNL1        0.0689
     12 N         142.2835  144.4498  161.2537 N.ar    1  UNL1       -0.2477
     13 C         140.8596  144.8857  161.4338 C.ar    1  UNL1        0.0955
     14 C         140.2159  144.8053  162.7862 C.ar    1  UNL1        0.0135
     15 C         140.9961  144.2889  163.9586 C.ar    1  UNL1        0.0101
     16 C         142.4200  143.8529  163.7785 C.ar    1  UNL1        0.0817
     17 C         143.2003  143.3365  164.9510 C.1     1  UNL1        0.1016
     18 N         143.9805  142.8201  166.1234 N.1     1  UNL1       -0.1908
     19 C         138.3164  138.4045  162.4353 C.3     1  UNL1        0.0970
     20 C         139.6619  137.7934  162.6933 C.3     1  UNL1        0.1263
     21 N         140.8837  138.3656  162.0377 N.ar    1  UNL1       -0.2941
     22 C         140.9511  138.4754  160.5433 C.ar    1  UNL1        0.2610
     23 O         139.7968  138.0130  159.7043 O.2     1  UNL1       -0.2670
     24 C         142.1729  139.0476  159.8877 C.ar    1  UNL1        0.0608
     25 C         143.3273  139.5100  160.7265 C.ar    1  UNL1        0.0063
     26 C         143.2598  139.4002  162.2210 C.ar    1  UNL1        0.0161
     27 C         144.4141  139.8626  163.0599 C.ar    1  UNL1        0.0021
     28 C         144.3467  139.7527  164.5543 C.ar    1  UNL1        0.0104
     29 C         143.1249  139.1805  165.2099 C.ar    1  UNL1        0.0699
     30 C         141.9705  138.7181  164.3710 C.ar    1  UNL1        0.0275
     31 C         142.0380  138.8280  162.8766 C.ar    1  UNL1        0.0631
     32 C         143.0574  139.0707  166.7044 C.1     1  UNL1        0.1005
     33 N         142.9899  138.9609  168.1988 N.1     1  UNL1       -0.1908
@<TRIPOS>BOND
     1    10    11    1
     2    11    12   ar
     3    12    13   ar
     4    13    14   ar
     5    14     9    1
     6     9     7    1
     7     7     1    1
     8     1     2    1
     9     2     3    1
    10     3     4    1
    11     4    19    1
    12    19    20    1
    13    20    21    1
    14    21    22   ar
    15    22    23    2
    16    22    24   ar
    17    24    25   ar
    18    25    26   ar
    19    26    27   ar
    20    27    28   ar
    21    28    29   ar
    22    29    32    1
    23    32    33    3
    24    29    30   ar
    25    30    31   ar
    26     4     5    1
    27     5     6    1
    28    14    15   ar
    29    15    16   ar
    30    16    17    1
    31    17    18    3
    32    16    11   ar
    33     6     1    1
    34    31    21   ar
    35    31    26   ar
    36     7     8    1
@<TRIPOS>MOLECULE
*****
 33 36 0 0 0
SMALL
GASTEIGER

@<TRIPOS>ATOM
      1 C         143.2162  138.5747  162.7442 C.3     1  UNL1        0.0570
      2 C         142.0282  138.0136  162.0203 C.3     1  UNL1        0.0331
      3 C         140.7987  137.6238  162.7860 C.3     1  UNL1        0.0735
      4 N         140.7572  137.7951  164.2757 N.3     1  UNL1       -0.2710
      5 C         141.9452  138.3562  164.9995 C.3     1  UNL1        0.0735
      6 C         143.1747  138.7460  164.2337 C.3     1  UNL1        0.0331
      7 N         144.4457  138.9645  161.9784 N.3     1  UNL1       -0.2947
      8 H         145.2150  138.9863  162.6478 H       1  UNL1        0.1235
      9 C         144.4838  140.2653  161.2325 C.3     1  UNL1        0.0972
     10 C         142.1133  145.2009  163.6862 C.3     1  UNL1        0.0528
     11 C         142.7059  143.9670  163.0728 C.ar    1  UNL1        0.0689
     12 N         143.9269  143.3406  163.6784 N.ar    1  UNL1       -0.2477
     13 C         144.5195  142.1067  163.0649 C.ar    1  UNL1        0.0955
     14 C         143.8912  141.4992  161.8459 C.ar    1  UNL1        0.0135
     15 C         142.6702  142.1256  161.2403 C.ar    1  UNL1        0.0101
     16 C         142.0776  143.3595  161.8538 C.ar    1  UNL1        0.0817
     17 C         140.8565  143.9859  161.2481 C.1     1  UNL1        0.1016
     18 N         139.6355  144.6122  160.6424 N.1     1  UNL1       -0.1908
     19 C         139.5277  137.4054  165.0415 C.3     1  UNL1        0.0970
     20 C         138.4846  138.4352  165.3599 C.3     1  UNL1        0.1263
     21 N         138.6834  139.8602  164.9357 N.ar    1  UNL1       -0.2941
     22 C         138.2782  140.2963  163.5589 C.ar    1  UNL1        0.2610
     23 O         137.6741  139.3075  162.6063 O.2     1  UNL1       -0.2670
     24 C         138.4770  141.7213  163.1347 C.ar    1  UNL1        0.0608
     25 C         139.0810  142.7101  164.0872 C.ar    1  UNL1        0.0063
     26 C         139.4863  142.2739  165.4641 C.ar    1  UNL1        0.0161
     27 C         140.0904  143.2627  166.4166 C.ar    1  UNL1        0.0021
     28 C         140.4956  142.8266  167.7933 C.ar    1  UNL1        0.0104
     29 C         140.2968  141.4016  168.2176 C.ar    1  UNL1        0.0699
     30 C         139.6928  140.4128  167.2650 C.ar    1  UNL1        0.0275
     31 C         139.2875  140.8490  165.8883 C.ar    1  UNL1        0.0631
     32 C         140.7021  140.9655  169.5944 C.1     1  UNL1        0.1005
     33 N         141.1073  140.5294  170.9712 N.1     1  UNL1       -0.1908
@<TRIPOS>BOND
     1    10    11    1
     2    11    12   ar
     3    12    13   ar
     4    13    14   ar
     5    14     9    1
     6     9     7    1
     7     7     1    1
     8     1     2    1
     9     2     3    1
    10     3     4    1
    11     4    19    1
    12    19    20    1
    13    20    21    1
    14    21    22   ar
    15    22    23    2
    16    22    24   ar
    17    24    25   ar
    18    25    26   ar
    19    26    27   ar
    20    27    28   ar
    21    28    29   ar
    22    29    32    1
    23    32    33    3
    24    29    30   ar
    25    30    31   ar
    26     4     5    1
    27     5     6    1
    28    14    15   ar
    29    15    16   ar
    30    16    17    1
    31    17    18    3
    32    16    11   ar
    33     6     1    1
    34    31    21   ar
    35    31    26   ar
    36     7     8    1
