@<TRIPOS>MOLECULE
*****
 25 28 0 0 0
SMALL
GASTEIGER

@<TRIPOS>ATOM
      1 C         138.4729  139.0265  165.3880 C.ar    1  UNL1        0.0536
      2 C         138.0615  140.2093  164.5625 C.ar    1  UNL1        0.0042
      3 C         138.0640  140.1164  163.0655 C.ar    1  UNL1       -0.0028
      4 C         138.4779  138.8406  162.3939 C.ar    1  UNL1       -0.0061
      5 C         138.8894  137.6577  163.2194 C.ar    1  UNL1       -0.0028
      6 C         138.8868  137.7507  164.7165 C.ar    1  UNL1        0.0042
      7 O         137.4011  138.4278  167.6778 O.2     1  UNL1       -0.2699
      8 C         138.4704  139.1193  166.8852 C.2     1  UNL1        0.2491
      9 N         139.5373  139.9038  167.5898 N.am    1  UNL1       -0.2732
     10 C         140.6067  140.5954  166.7972 C.3     1  UNL1        0.1110
     11 C         141.6736  141.3798  167.5018 C.3     1  UNL1        0.0939
     12 N         141.6711  141.4727  168.9989 N.3     1  UNL1       -0.2711
     13 C         140.6017  140.7811  169.7915 C.3     1  UNL1        0.0939
     14 C         139.5348  139.9967  169.0869 C.3     1  UNL1        0.1110
     15 C         142.7379  142.2571  169.7035 C.3     1  UNL1        0.0577
     16 C         143.1349  143.3166  170.6883 C.3     1  UNL1        0.0173
     17 C         144.1887  142.5564  169.9389 C.3     1  UNL1        0.0173
     18 C         138.4804  138.7477  160.8967 C.3     1  UNL1        0.0991
     19 N         139.7554  138.9557  160.1345 N.3     1  UNL1       -0.2688
     20 C         140.9106  139.6594  160.7829 C.3     1  UNL1        0.0752
     21 C         142.1857  139.8673  160.0206 C.3     1  UNL1        0.0526
     22 C         142.3055  139.3716  158.6100 C.3     1  UNL1        0.1638
     23 F         143.5806  139.5795  157.8477 F       1  UNL1       -0.2372
     24 C         141.1504  138.6679  157.9616 C.3     1  UNL1        0.0526
     25 C         139.8753  138.4599  158.7238 C.3     1  UNL1        0.0752
@<TRIPOS>BOND
     1     7     8    2
     2     8     1    1
     3     1     2   ar
     4     2     3   ar
     5     3     4   ar
     6     4    18    1
     7    18    19    1
     8    19    20    1
     9    20    21    1
    10    21    22    1
    11    22    23    1
    12    22    24    1
    13    24    25    1
    14     4     5   ar
    15     5     6   ar
    16     8     9   am
    17     9    10    1
    18    10    11    1
    19    11    12    1
    20    12    15    1
    21    15    16    1
    22    16    17    1
    23    12    13    1
    24    13    14    1
    25     6     1   ar
    26    14     9    1
    27    25    19    1
    28    17    15    1
@<TRIPOS>MOLECULE
*****
 25 28 0 0 0
SMALL
GASTEIGER

@<TRIPOS>ATOM
      1 C         138.6621  140.4791  164.3350 C.ar    1  UNL1        0.0536
      2 C         139.6593  141.4378  164.9151 C.ar    1  UNL1        0.0042
      3 C         140.1357  141.2617  166.3264 C.ar    1  UNL1       -0.0028
      4 C         139.6150  140.1268  167.1577 C.ar    1  UNL1       -0.0061
      5 C         138.6179  139.1681  166.5776 C.ar    1  UNL1       -0.0028
      6 C         138.1414  139.3443  165.1662 C.ar    1  UNL1        0.0042
      7 O         136.9393  141.4423  162.6455 O.2     1  UNL1       -0.2699
      8 C         138.1856  140.6553  162.9236 C.2     1  UNL1        0.2491
      9 N         138.9554  140.0443  161.7904 N.am    1  UNL1       -0.2732
     10 C         140.2016  139.2573  162.0685 C.3     1  UNL1        0.1110
     11 C         140.9714  138.6463  160.9352 C.3     1  UNL1        0.0939
     12 N         140.4949  138.8225  159.5239 N.3     1  UNL1       -0.2711
     13 C         139.2486  139.6095  159.2458 C.3     1  UNL1        0.0939
     14 C         138.4788  140.2205  160.3790 C.3     1  UNL1        0.1110
     15 C         141.2646  138.2115  158.3906 C.3     1  UNL1        0.0577
     16 C         141.2895  137.5525  157.0434 C.3     1  UNL1        0.0173
     17 C         142.5729  137.8124  157.7751 C.3     1  UNL1        0.0173
     18 C         140.0916  139.9507  168.5691 C.3     1  UNL1        0.0991
     19 N         141.0100  140.9655  169.1827 N.3     1  UNL1       -0.2688
     20 C         140.4574  142.2588  169.7043 C.3     1  UNL1        0.0752
     21 C         141.3759  143.2737  170.3180 C.3     1  UNL1        0.0526
     22 C         142.8469  142.9952  170.4101 C.3     1  UNL1        0.1638
     23 F         143.7653  144.0100  171.0237 F       1  UNL1       -0.2372
     24 C         143.3995  141.7019  169.8885 C.3     1  UNL1        0.0526
     25 C         142.4811  140.6871  169.2749 C.3     1  UNL1        0.0752
@<TRIPOS>BOND
     1     7     8    2
     2     8     1    1
     3     1     2   ar
     4     2     3   ar
     5     3     4   ar
     6     4    18    1
     7    18    19    1
     8    19    20    1
     9    20    21    1
    10    21    22    1
    11    22    23    1
    12    22    24    1
    13    24    25    1
    14     4     5   ar
    15     5     6   ar
    16     8     9   am
    17     9    10    1
    18    10    11    1
    19    11    12    1
    20    12    15    1
    21    15    16    1
    22    16    17    1
    23    12    13    1
    24    13    14    1
    25     6     1   ar
    26    14     9    1
    27    25    19    1
    28    17    15    1
@<TRIPOS>MOLECULE
*****
 25 28 0 0 0
SMALL
GASTEIGER

@<TRIPOS>ATOM
      1 C         143.8680  140.3581  163.8869 C.ar    1  UNL1        0.0536
      2 C         144.2082  139.0427  164.5224 C.ar    1  UNL1        0.0042
      3 C         143.7768  138.7561  165.9301 C.ar    1  UNL1       -0.0028
      4 C         143.0051  139.7849  166.7023 C.ar    1  UNL1       -0.0061
      5 C         142.6649  141.1003  166.0667 C.ar    1  UNL1       -0.0028
      6 C         143.0964  141.3869  164.6590 C.ar    1  UNL1        0.0042
      7 O         145.4346  141.5905  162.2204 O.2     1  UNL1       -0.2699
      8 C         144.2994  140.6448  162.4791 C.2     1  UNL1        0.2491
      9 N         143.5956  139.9859  161.3300 N.am    1  UNL1       -0.2732
     10 C         142.4603  139.0402  161.5887 C.3     1  UNL1        0.1110
     11 C         141.7565  138.3812  160.4395 C.3     1  UNL1        0.0939
     12 N         142.1879  138.6679  159.0319 N.3     1  UNL1       -0.2711
     13 C         143.3232  139.6136  158.7732 C.3     1  UNL1        0.0939
     14 C         144.0270  140.2726  159.9223 C.3     1  UNL1        0.1110
     15 C         141.4841  138.0089  157.8828 C.3     1  UNL1        0.0577
     16 C         140.2347  137.7753  157.0863 C.3     1  UNL1        0.0173
     17 C         141.5144  137.1011  156.6891 C.3     1  UNL1        0.0173
     18 C         142.5737  139.4982  168.1100 C.3     1  UNL1        0.0991
     19 N         141.7366  140.4947  168.8556 N.3     1  UNL1       -0.2688
     20 C         140.2649  140.2600  169.0258 C.3     1  UNL1        0.0752
     21 C         139.4277  141.2566  169.7714 C.3     1  UNL1        0.0526
     22 C         140.0622  142.4880  170.3468 C.3     1  UNL1        0.1638
     23 F         139.2250  143.4846  171.0923 F       1  UNL1       -0.2372
     24 C         141.5339  142.7228  170.1765 C.3     1  UNL1        0.0526
     25 C         142.3711  141.7262  169.4310 C.3     1  UNL1        0.0752
@<TRIPOS>BOND
     1     7     8    2
     2     8     1    1
     3     1     2   ar
     4     2     3   ar
     5     3     4   ar
     6     4    18    1
     7    18    19    1
     8    19    20    1
     9    20    21    1
    10    21    22    1
    11    22    23    1
    12    22    24    1
    13    24    25    1
    14     4     5   ar
    15     5     6   ar
    16     8     9   am
    17     9    10    1
    18    10    11    1
    19    11    12    1
    20    12    15    1
    21    15    16    1
    22    16    17    1
    23    12    13    1
    24    13    14    1
    25     6     1   ar
    26    14     9    1
    27    25    19    1
    28    17    15    1
@<TRIPOS>MOLECULE
*****
 25 28 0 0 0
SMALL
GASTEIGER

@<TRIPOS>ATOM
      1 C         140.1580  138.6477  163.7835 C.ar    1  UNL1        0.0536
      2 C         138.9523  138.1304  164.5104 C.ar    1  UNL1        0.0042
      3 C         138.6764  138.5746  165.9163 C.ar    1  UNL1       -0.0028
      4 C         139.6063  139.5360  166.5953 C.ar    1  UNL1       -0.0061
      5 C         140.8121  140.0533  165.8683 C.ar    1  UNL1       -0.0028
      6 C         141.0879  139.6091  164.4624 C.ar    1  UNL1        0.0042
      7 O         141.3768  137.0653  162.1220 O.2     1  UNL1       -0.2699
      8 C         140.4339  138.2036  162.3775 C.2     1  UNL1        0.2491
      9 N         139.7670  138.8977  161.2272 N.am    1  UNL1       -0.2732
     10 C         138.8241  140.0360  161.4827 C.3     1  UNL1        0.1110
     11 C         138.1572  140.7301  160.3323 C.3     1  UNL1        0.0939
     12 N         138.4331  140.2860  158.9264 N.3     1  UNL1       -0.2711
     13 C         139.3760  139.1477  158.6709 C.3     1  UNL1        0.0939
     14 C         140.0429  138.4536  159.8212 C.3     1  UNL1        0.1110
     15 C         137.7662  140.9801  157.7761 C.3     1  UNL1        0.0577
     16 C         137.8253  141.9494  156.6328 C.3     1  UNL1        0.0173
     17 C         136.5520  141.2132  156.9268 C.3     1  UNL1        0.0173
     18 C         139.3304  139.9802  168.0012 C.3     1  UNL1        0.0991
     19 N         140.3236  140.8404  168.7246 N.3     1  UNL1       -0.2688
     20 C         141.4247  140.2064  169.5219 C.3     1  UNL1        0.0752
     21 C         142.4180  141.0668  170.2453 C.3     1  UNL1        0.0526
     22 C         142.3102  142.5610  170.1713 C.3     1  UNL1        0.1638
     23 F         143.3035  143.4213  170.8947 F       1  UNL1       -0.2372
     24 C         141.2092  143.1950  169.3740 C.3     1  UNL1        0.0526
     25 C         140.2159  142.3348  168.6507 C.3     1  UNL1        0.0752
@<TRIPOS>BOND
     1     7     8    2
     2     8     1    1
     3     1     2   ar
     4     2     3   ar
     5     3     4   ar
     6     4    18    1
     7    18    19    1
     8    19    20    1
     9    20    21    1
    10    21    22    1
    11    22    23    1
    12    22    24    1
    13    24    25    1
    14     4     5   ar
    15     5     6   ar
    16     8     9   am
    17     9    10    1
    18    10    11    1
    19    11    12    1
    20    12    15    1
    21    15    16    1
    22    16    17    1
    23    12    13    1
    24    13    14    1
    25     6     1   ar
    26    14     9    1
    27    25    19    1
    28    17    15    1
@<TRIPOS>MOLECULE
*****
 25 28 0 0 0
SMALL
GASTEIGER

@<TRIPOS>ATOM
      1 C         141.7144  138.8136  164.0578 C.ar    1  UNL1        0.0536
      2 C         140.9821  139.9682  164.6745 C.ar    1  UNL1        0.0042
      3 C         141.3202  140.4135  166.0664 C.ar    1  UNL1       -0.0028
      4 C         142.3907  139.7042  166.8416 C.ar    1  UNL1       -0.0061
      5 C         143.1231  138.5495  166.2248 C.ar    1  UNL1       -0.0028
      6 C         142.7849  138.1042  164.8330 C.ar    1  UNL1        0.0042
      7 O         140.3534  137.2925  162.4503 O.2     1  UNL1       -0.2699
      8 C         141.3763  138.3682  162.6659 C.2     1  UNL1        0.2491
      9 N         142.0611  138.9985  161.4896 N.am    1  UNL1       -0.2732
     10 C         143.0841  140.0742  161.7052 C.3     1  UNL1        0.1110
     11 C         143.7689  140.7045  160.5288 C.3     1  UNL1        0.0939
     12 N         143.4308  140.2592  159.1370 N.3     1  UNL1       -0.2711
     13 C         142.4078  139.1835  158.9214 C.3     1  UNL1        0.0939
     14 C         141.7230  138.5532  160.0977 C.3     1  UNL1        0.1110
     15 C         144.1156  140.8895  157.9607 C.3     1  UNL1        0.0577
     16 C         145.1653  140.8426  156.8902 C.3     1  UNL1        0.0173
     17 C         144.2521  142.0281  156.9938 C.3     1  UNL1        0.0173
     18 C         142.7288  140.1495  168.2335 C.3     1  UNL1        0.0991
     19 N         141.7732  141.0188  168.9957 N.3     1  UNL1       -0.2688
     20 C         142.0600  142.4816  169.1629 C.3     1  UNL1        0.0752
     21 C         141.1043  143.3509  169.9252 C.3     1  UNL1        0.0526
     22 C         139.8619  142.7574  170.5203 C.3     1  UNL1        0.1638
     23 F         138.9063  143.6267  171.2825 F       1  UNL1       -0.2372
     24 C         139.5751  141.2946  170.3531 C.3     1  UNL1        0.0526
     25 C         140.5307  140.4253  169.5908 C.3     1  UNL1        0.0752
@<TRIPOS>BOND
     1     7     8    2
     2     8     1    1
     3     1     2   ar
     4     2     3   ar
     5     3     4   ar
     6     4    18    1
     7    18    19    1
     8    19    20    1
     9    20    21    1
    10    21    22    1
    11    22    23    1
    12    22    24    1
    13    24    25    1
    14     4     5   ar
    15     5     6   ar
    16     8     9   am
    17     9    10    1
    18    10    11    1
    19    11    12    1
    20    12    15    1
    21    15    16    1
    22    16    17    1
    23    12    13    1
    24    13    14    1
    25     6     1   ar
    26    14     9    1
    27    25    19    1
    28    17    15    1
@<TRIPOS>MOLECULE
*****
 25 28 0 0 0
SMALL
GASTEIGER

@<TRIPOS>ATOM
      1 C         137.9998  140.0114  162.3821 C.ar    1  UNL1        0.0536
      2 C         138.5388  138.6818  162.8198 C.ar    1  UNL1        0.0042
      3 C         138.7788  138.4123  164.2757 C.ar    1  UNL1       -0.0028
      4 C         138.4799  139.4724  165.2939 C.ar    1  UNL1       -0.0061
      5 C         137.9409  140.8020  164.8562 C.ar    1  UNL1       -0.0028
      6 C         137.7008  141.0715  163.4003 C.ar    1  UNL1        0.0042
      7 O         136.8231  139.4067  160.1460 O.2     1  UNL1       -0.2699
      8 C         137.7597  140.2809  160.9261 C.2     1  UNL1        0.2491
      9 N         138.4561  141.4247  160.2503 N.am    1  UNL1       -0.2732
     10 C         139.3926  142.2990  161.0304 C.3     1  UNL1        0.1110
     11 C         140.0891  143.4428  160.3545 C.3     1  UNL1        0.0939
     12 N         139.8490  143.7123  158.8986 N.3     1  UNL1       -0.2711
     13 C         138.9124  142.8380  158.1185 C.3     1  UNL1        0.0939
     14 C         138.2160  141.6942  158.7943 C.3     1  UNL1        0.1110
     15 C         140.5454  144.8560  158.2228 C.3     1  UNL1        0.0577
     16 C         141.8127  145.5522  157.8238 C.3     1  UNL1        0.0173
     17 C         140.4844  146.1410  157.4514 C.3     1  UNL1        0.0173
     18 C         138.7200  139.2029  166.7499 C.3     1  UNL1        0.0991
     19 N         139.9390  139.7586  167.4244 N.3     1  UNL1       -0.2688
     20 C         141.2335  139.8557  166.6728 C.3     1  UNL1        0.0752
     21 C         142.4526  140.4114  167.3475 C.3     1  UNL1        0.0526
     22 C         142.3772  140.8701  168.7736 C.3     1  UNL1        0.1638
     23 F         143.5962  141.4258  169.4482 F       1  UNL1       -0.2372
     24 C         141.0827  140.7730  169.5252 C.3     1  UNL1        0.0526
     25 C         139.8636  140.2173  168.8507 C.3     1  UNL1        0.0752
@<TRIPOS>BOND
     1     7     8    2
     2     8     1    1
     3     1     2   ar
     4     2     3   ar
     5     3     4   ar
     6     4    18    1
     7    18    19    1
     8    19    20    1
     9    20    21    1
    10    21    22    1
    11    22    23    1
    12    22    24    1
    13    24    25    1
    14     4     5   ar
    15     5     6   ar
    16     8     9   am
    17     9    10    1
    18    10    11    1
    19    11    12    1
    20    12    15    1
    21    15    16    1
    22    16    17    1
    23    12    13    1
    24    13    14    1
    25     6     1   ar
    26    14     9    1
    27    25    19    1
    28    17    15    1
@<TRIPOS>MOLECULE
*****
 25 28 0 0 0
SMALL
GASTEIGER

@<TRIPOS>ATOM
      1 C         140.2807  138.9452  158.5554 C.ar    1  UNL1        0.0536
      2 C         141.7607  138.9473  158.7992 C.ar    1  UNL1        0.0042
      3 C         142.6569  138.0658  157.9808 C.ar    1  UNL1       -0.0028
      4 C         142.0730  137.1823  156.9185 C.ar    1  UNL1       -0.0061
      5 C         140.5930  137.1803  156.6746 C.ar    1  UNL1       -0.0028
      6 C         139.6968  138.0617  157.4931 C.ar    1  UNL1        0.0042
      7 O         138.7190  141.0132  158.7419 O.2     1  UNL1       -0.2699
      8 C         139.3845  139.8267  159.3739 C.2     1  UNL1        0.2491
      9 N         139.1538  139.5217  160.8243 N.am    1  UNL1       -0.2732
     10 C         139.8193  138.3352  161.4563 C.3     1  UNL1        0.1110
     11 C         139.5886  138.0302  162.9068 C.3     1  UNL1        0.0939
     12 N         138.6924  138.9117  163.7252 N.3     1  UNL1       -0.2711
     13 C         138.0269  140.0982  163.0932 C.3     1  UNL1        0.0939
     14 C         138.2576  140.4032  161.6428 C.3     1  UNL1        0.1110
     15 C         138.4617  138.6067  165.1756 C.3     1  UNL1        0.0577
     16 C         138.0452  137.6476  166.2511 C.3     1  UNL1        0.0173
     17 C         138.4786  139.0374  166.6123 C.3     1  UNL1        0.0173
     18 C         142.9692  136.3008  156.1000 C.3     1  UNL1        0.0991
     19 N         142.8714  134.8093  156.2247 N.3     1  UNL1       -0.2688
     20 C         141.8519  134.0548  155.4238 C.3     1  UNL1        0.0752
     21 C         141.7542  132.5632  155.5487 C.3     1  UNL1        0.0526
     22 C         142.6759  131.8260  156.4744 C.3     1  UNL1        0.1638
     23 F         142.5781  130.3345  156.5992 F       1  UNL1       -0.2372
     24 C         143.6954  132.5805  157.2753 C.3     1  UNL1        0.0526
     25 C         143.7932  134.0720  157.1505 C.3     1  UNL1        0.0752
@<TRIPOS>BOND
     1     7     8    2
     2     8     1    1
     3     1     2   ar
     4     2     3   ar
     5     3     4   ar
     6     4    18    1
     7    18    19    1
     8    19    20    1
     9    20    21    1
    10    21    22    1
    11    22    23    1
    12    22    24    1
    13    24    25    1
    14     4     5   ar
    15     5     6   ar
    16     8     9   am
    17     9    10    1
    18    10    11    1
    19    11    12    1
    20    12    15    1
    21    15    16    1
    22    16    17    1
    23    12    13    1
    24    13    14    1
    25     6     1   ar
    26    14     9    1
    27    25    19    1
    28    17    15    1
@<TRIPOS>MOLECULE
*****
 25 28 0 0 0
SMALL
GASTEIGER

@<TRIPOS>ATOM
      1 C         139.8235  139.4193  163.8897 C.ar    1  UNL1        0.0536
      2 C         138.5067  139.5834  164.5892 C.ar    1  UNL1        0.0042
      3 C         138.4664  139.7779  166.0759 C.ar    1  UNL1       -0.0028
      4 C         139.7428  139.8084  166.8632 C.ar    1  UNL1       -0.0061
      5 C         141.0596  139.6443  166.1638 C.ar    1  UNL1       -0.0028
      6 C         141.0999  139.4498  164.6770 C.ar    1  UNL1        0.0042
      7 O         139.8200  137.8408  161.8261 O.2     1  UNL1       -0.2699
      8 C         139.8638  139.2248  162.4029 C.2     1  UNL1        0.2491
      9 N         139.9481  140.4142  161.4929 N.am    1  UNL1       -0.2732
     10 C         139.9919  141.7982  162.0696 C.3     1  UNL1        0.1110
     11 C         140.0762  142.9876  161.1595 C.3     1  UNL1        0.0939
     12 N         140.1166  142.7931  159.6728 N.3     1  UNL1       -0.2711
     13 C         140.0727  141.4091  159.0960 C.3     1  UNL1        0.0939
     14 C         139.9885  140.2197  160.0060 C.3     1  UNL1        0.1110
     15 C         140.2008  143.9825  158.7628 C.3     1  UNL1        0.0577
     16 C         140.6538  145.3883  158.5009 C.3     1  UNL1        0.0173
     17 C         139.8937  144.6369  157.4485 C.3     1  UNL1        0.0173
     18 C         139.7025  140.0029  168.3501 C.3     1  UNL1        0.0991
     19 N         140.6528  140.9594  169.0074 N.3     1  UNL1       -0.2688
     20 C         141.9877  140.4764  169.4916 C.3     1  UNL1        0.0752
     21 C         142.9381  141.4329  170.1490 C.3     1  UNL1        0.0526
     22 C         142.5533  142.8723  170.3221 C.3     1  UNL1        0.1638
     23 F         143.5036  143.8288  170.9794 F       1  UNL1       -0.2372
     24 C         141.2184  143.3553  169.8378 C.3     1  UNL1        0.0526
     25 C         140.2681  142.3989  169.1805 C.3     1  UNL1        0.0752
@<TRIPOS>BOND
     1     7     8    2
     2     8     1    1
     3     1     2   ar
     4     2     3   ar
     5     3     4   ar
     6     4    18    1
     7    18    19    1
     8    19    20    1
     9    20    21    1
    10    21    22    1
    11    22    23    1
    12    22    24    1
    13    24    25    1
    14     4     5   ar
    15     5     6   ar
    16     8     9   am
    17     9    10    1
    18    10    11    1
    19    11    12    1
    20    12    15    1
    21    15    16    1
    22    16    17    1
    23    12    13    1
    24    13    14    1
    25     6     1   ar
    26    14     9    1
    27    25    19    1
    28    17    15    1
@<TRIPOS>MOLECULE
*****
 25 28 0 0 0
SMALL
GASTEIGER

@<TRIPOS>ATOM
      1 C         138.3083  139.4805  162.4293 C.ar    1  UNL1        0.0536
      2 C         138.0493  140.7066  163.2536 C.ar    1  UNL1        0.0042
      3 C         138.1507  140.6403  164.7487 C.ar    1  UNL1       -0.0028
      4 C         138.5112  139.3480  165.4194 C.ar    1  UNL1       -0.0061
      5 C         138.7702  138.1219  164.5951 C.ar    1  UNL1       -0.0028
      6 C         138.6688  138.1882  163.1000 C.ar    1  UNL1        0.0042
      7 O         136.8677  139.4351  160.2676 O.2     1  UNL1       -0.2699
      8 C         138.2069  139.5467  160.9341 C.2     1  UNL1        0.2491
      9 N         139.4445  139.7246  160.1056 N.am    1  UNL1       -0.2732
     10 C         140.7837  139.8362  160.7721 C.3     1  UNL1        0.1110
     11 C         142.0214  140.0140  159.9435 C.3     1  UNL1        0.0939
     12 N         141.9199  140.0802  158.4484 N.3     1  UNL1       -0.2711
     13 C         140.5807  139.9686  157.7819 C.3     1  UNL1        0.0939
     14 C         139.3431  139.7908  158.6105 C.3     1  UNL1        0.1110
     15 C         143.1575  140.2581  157.6199 C.3     1  UNL1        0.0577
     16 C         144.5647  140.7575  157.4774 C.3     1  UNL1        0.0173
     17 C         143.8941  140.0666  156.3273 C.3     1  UNL1        0.0173
     18 C         138.6126  139.2818  166.9146 C.3     1  UNL1        0.0991
     19 N         139.8558  139.7604  167.6039 N.3     1  UNL1       -0.2688
     20 C         139.7882  140.2437  169.0223 C.3     1  UNL1        0.0752
     21 C         141.0316  140.7224  169.7116 C.3     1  UNL1        0.0526
     22 C         142.3424  140.7178  168.9825 C.3     1  UNL1        0.1638
     23 F         143.5856  141.1964  169.6718 F       1  UNL1       -0.2372
     24 C         142.4100  140.2345  167.5641 C.3     1  UNL1        0.0526
     25 C         141.1668  139.7558  166.8748 C.3     1  UNL1        0.0752
@<TRIPOS>BOND
     1     7     8    2
     2     8     1    1
     3     1     2   ar
     4     2     3   ar
     5     3     4   ar
     6     4    18    1
     7    18    19    1
     8    19    20    1
     9    20    21    1
    10    21    22    1
    11    22    23    1
    12    22    24    1
    13    24    25    1
    14     4     5   ar
    15     5     6   ar
    16     8     9   am
    17     9    10    1
    18    10    11    1
    19    11    12    1
    20    12    15    1
    21    15    16    1
    22    16    17    1
    23    12    13    1
    24    13    14    1
    25     6     1   ar
    26    14     9    1
    27    25    19    1
    28    17    15    1
