@<TRIPOS>MOLECULE
*****
 24 26 0 0 0
SMALL
GASTEIGER

@<TRIPOS>ATOM
      1 C         139.0374  140.7531  165.1996 C.ar    1  UNL1        0.1285
      2 N         139.6070  141.5322  166.3478 N.ar    1  UNL1       -0.2309
      3 C         140.8825  141.0850  166.9983 C.ar    1  UNL1        0.0828
      4 C         141.5884  139.8586  166.5006 C.ar    1  UNL1        0.0208
      5 C         141.0188  139.0794  165.3523 C.ar    1  UNL1        0.0234
      6 C         141.7246  137.8530  164.8547 C.ar    1  UNL1        0.0990
      7 N         141.1550  137.0739  163.7065 N.ar    1  UNL1       -0.2423
      8 C         139.8795  137.5211  163.0559 C.ar    1  UNL1        0.0990
      9 C         139.1737  138.7475  163.5536 C.ar    1  UNL1        0.0234
     10 C         139.7433  139.5266  164.7018 C.ar    1  UNL1        0.0345
     11 C         141.4521  141.8642  168.1466 C.ar    1  UNL1        0.0208
     12 C         142.8757  141.6481  168.5668 C.ar    1  UNL1        0.0222
     13 C         143.4453  142.4273  169.7150 C.ar    1  UNL1        0.0989
     14 N         142.5912  143.4226  170.4430 N.ar    1  UNL1       -0.2423
     15 C         141.1676  143.6387  170.0228 C.ar    1  UNL1        0.0989
     16 C         140.5981  142.8595  168.8746 C.ar    1  UNL1        0.0222
     17 N         137.7619  141.2003  164.5491 N.pl3   1  UNL1       -0.3170
     18 H         137.0579  140.5437  164.3431 H       1  UNL1        0.1482
     19 C         137.5591  142.6479  164.2125 C.3     1  UNL1        0.1038
     20 C         138.0735  142.1417  161.7166 C.3     1  UNL1        0.0186
     21 C         137.7530  143.1246  162.8036 C.3     1  UNL1        0.0707
     22 N         137.6265  144.5841  162.4815 N.3     1  UNL1       -0.3208
     23 H         137.7882  144.7276  161.4847 H       1  UNL1        0.1189
     24 H         138.3159  145.1115  163.0172 H       1  UNL1        0.1189
@<TRIPOS>BOND
     1    21    20    1
     2    21    22    1
     3    21    19    1
     4    19    17    1
     5    17     1    1
     6     1     2   ar
     7     2     3   ar
     8     3    11    1
     9    11    12   ar
    10    12    13   ar
    11    13    14   ar
    12    14    15   ar
    13    15    16   ar
    14     3     4   ar
    15     4     5   ar
    16     5     6   ar
    17     6     7   ar
    18     7     8   ar
    19     8     9   ar
    20     9    10   ar
    21    10     1   ar
    22    16    11   ar
    23    10     5   ar
    24    22    23    1
    25    22    24    1
    26    17    18    1
@<TRIPOS>MOLECULE
*****
 24 26 0 0 0
SMALL
GASTEIGER

@<TRIPOS>ATOM
      1 C         140.1105  143.9166  164.4186 C.ar    1  UNL1        0.1285
      2 N         139.7375  143.4431  165.7921 N.ar    1  UNL1       -0.2309
      3 C         140.7546  142.7477  166.6476 C.ar    1  UNL1        0.0828
      4 C         142.1447  142.5259  166.1296 C.ar    1  UNL1        0.0208
      5 C         142.5178  142.9994  164.7560 C.ar    1  UNL1        0.0234
      6 C         143.9078  142.7776  164.2380 C.ar    1  UNL1        0.0990
      7 N         144.2808  143.2511  162.8645 N.ar    1  UNL1       -0.2423
      8 C         143.2637  143.9465  162.0090 C.ar    1  UNL1        0.0990
      9 C         141.8736  144.1683  162.5270 C.ar    1  UNL1        0.0234
     10 C         141.5006  143.6948  163.9005 C.ar    1  UNL1        0.0345
     11 C         140.3816  142.2742  168.0212 C.ar    1  UNL1        0.0208
     12 C         139.9892  140.8431  168.2403 C.ar    1  UNL1        0.0222
     13 C         139.6162  140.3697  169.6139 C.ar    1  UNL1        0.0989
     14 N         139.6356  141.3272  170.7683 N.ar    1  UNL1       -0.2423
     15 C         140.0281  142.7583  170.5492 C.ar    1  UNL1        0.0989
     16 C         140.4011  143.2317  169.1756 C.ar    1  UNL1        0.0222
     17 N         139.0933  144.6120  163.5631 N.pl3   1  UNL1       -0.3170
     18 H         139.2970  145.4932  163.1742 H       1  UNL1        0.1482
     19 C         137.7660  143.9648  163.3002 C.3     1  UNL1        0.1038
     20 C         138.4573  142.4720  161.2892 C.3     1  UNL1        0.0186
     21 C         137.7013  142.6551  162.5718 C.3     1  UNL1        0.0707
     22 N         136.8806  141.5285  163.1260 N.3     1  UNL1       -0.3208
     23 H         136.9505  140.7206  162.5073 H       1  UNL1        0.1189
     24 H         135.9057  141.8202  163.1955 H       1  UNL1        0.1189
@<TRIPOS>BOND
     1    21    20    1
     2    21    22    1
     3    21    19    1
     4    19    17    1
     5    17     1    1
     6     1     2   ar
     7     2     3   ar
     8     3    11    1
     9    11    12   ar
    10    12    13   ar
    11    13    14   ar
    12    14    15   ar
    13    15    16   ar
    14     3     4   ar
    15     4     5   ar
    16     5     6   ar
    17     6     7   ar
    18     7     8   ar
    19     8     9   ar
    20     9    10   ar
    21    10     1   ar
    22    16    11   ar
    23    10     5   ar
    24    22    23    1
    25    22    24    1
    26    17    18    1
@<TRIPOS>MOLECULE
*****
 24 26 0 0 0
SMALL
GASTEIGER

@<TRIPOS>ATOM
      1 C         142.1928  143.3339  164.4945 C.ar    1  UNL1        0.1285
      2 N         141.9262  142.7839  165.8643 N.ar    1  UNL1       -0.2309
      3 C         140.5608  142.9131  166.4717 C.ar    1  UNL1        0.0828
      4 C         139.4620  143.5925  165.7093 C.ar    1  UNL1        0.0208
      5 C         139.7287  144.1426  164.3395 C.ar    1  UNL1        0.0234
      6 C         138.6299  144.8220  163.5771 C.ar    1  UNL1        0.0990
      7 N         138.8966  145.3720  162.2074 N.ar    1  UNL1       -0.2423
      8 C         140.2620  145.2427  161.6000 C.ar    1  UNL1        0.0990
      9 C         141.3608  144.5634  162.3623 C.ar    1  UNL1        0.0234
     10 C         141.0941  144.0133  163.7321 C.ar    1  UNL1        0.0345
     11 C         140.2941  142.3630  167.8415 C.ar    1  UNL1        0.0208
     12 C         140.4074  143.2542  169.0427 C.ar    1  UNL1        0.0222
     13 C         140.1407  142.7041  170.4124 C.ar    1  UNL1        0.0989
     14 N         139.7608  141.2628  170.5810 N.ar    1  UNL1       -0.2423
     15 C         139.6476  140.3716  169.3798 C.ar    1  UNL1        0.0989
     16 C         139.9142  140.9218  168.0100 C.ar    1  UNL1        0.0222
     17 N         143.5583  143.2046  163.8871 N.pl3   1  UNL1       -0.3170
     18 H         144.2145  143.9310  163.9920 H       1  UNL1        0.1482
     19 C         143.9239  141.9686  163.1199 C.3     1  UNL1        0.1038
     20 C         145.0188  139.8575  164.1661 C.3     1  UNL1        0.0186
     21 C         145.1514  141.1908  163.4916 C.3     1  UNL1        0.0707
     22 N         146.5115  141.7462  163.1889 N.3     1  UNL1       -0.3208
     23 H         147.2250  141.0907  163.5075 H       1  UNL1        0.1189
     24 H         146.6295  142.6377  163.6702 H       1  UNL1        0.1189
@<TRIPOS>BOND
     1    21    20    1
     2    21    22    1
     3    21    19    1
     4    19    17    1
     5    17     1    1
     6     1     2   ar
     7     2     3   ar
     8     3    11    1
     9    11    12   ar
    10    12    13   ar
    11    13    14   ar
    12    14    15   ar
    13    15    16   ar
    14     3     4   ar
    15     4     5   ar
    16     5     6   ar
    17     6     7   ar
    18     7     8   ar
    19     8     9   ar
    20     9    10   ar
    21    10     1   ar
    22    16    11   ar
    23    10     5   ar
    24    22    23    1
    25    22    24    1
    26    17    18    1
@<TRIPOS>MOLECULE
*****
 24 26 0 0 0
SMALL
GASTEIGER

@<TRIPOS>ATOM
      1 C         139.0369  140.6292  165.1212 C.ar    1  UNL1        0.1285
      2 N         139.7801  140.9148  166.3925 N.ar    1  UNL1       -0.2309
      3 C         140.2897  142.2983  166.6687 C.ar    1  UNL1        0.0828
      4 C         140.0562  143.3961  165.6737 C.ar    1  UNL1        0.0208
      5 C         139.3130  143.1106  164.4024 C.ar    1  UNL1        0.0234
      6 C         139.0795  144.2085  163.4074 C.ar    1  UNL1        0.0990
      7 N         138.3364  143.9229  162.1361 N.ar    1  UNL1       -0.2423
      8 C         137.8268  142.5395  161.8599 C.ar    1  UNL1        0.0990
      9 C         138.0603  141.4416  162.8549 C.ar    1  UNL1        0.0234
     10 C         138.8034  141.7271  164.1261 C.ar    1  UNL1        0.0345
     11 C         141.0329  142.5838  167.9401 C.ar    1  UNL1        0.0208
     12 C         142.4402  142.0942  168.1123 C.ar    1  UNL1        0.0222
     13 C         143.1833  142.3798  169.3836 C.ar    1  UNL1        0.0989
     14 N         142.5191  143.1549  170.4827 N.ar    1  UNL1       -0.2423
     15 C         141.1118  143.6445  170.3104 C.ar    1  UNL1        0.0989
     16 C         140.3687  143.3589  169.0392 C.ar    1  UNL1        0.0222
     17 N         138.5273  139.2458  164.8450 N.pl3   1  UNL1       -0.3170
     18 H         137.5585  139.0807  164.7861 H       1  UNL1        0.1482
     19 C         139.4937  138.1139  164.6583 C.3     1  UNL1        0.1038
     20 C         138.9483  137.9566  162.1230 C.3     1  UNL1        0.0186
     21 C         139.8612  137.6617  163.2761 C.3     1  UNL1        0.0707
     22 N         141.1416  136.9146  163.0471 N.3     1  UNL1       -0.3208
     23 H         141.2300  136.6871  162.0567 H       1  UNL1        0.1189
     24 H         141.1357  136.0540  163.5945 H       1  UNL1        0.1189
@<TRIPOS>BOND
     1    21    20    1
     2    21    22    1
     3    21    19    1
     4    19    17    1
     5    17     1    1
     6     1     2   ar
     7     2     3   ar
     8     3    11    1
     9    11    12   ar
    10    12    13   ar
    11    13    14   ar
    12    14    15   ar
    13    15    16   ar
    14     3     4   ar
    15     4     5   ar
    16     5     6   ar
    17     6     7   ar
    18     7     8   ar
    19     8     9   ar
    20     9    10   ar
    21    10     1   ar
    22    16    11   ar
    23    10     5   ar
    24    22    23    1
    25    22    24    1
    26    17    18    1
@<TRIPOS>MOLECULE
*****
 24 26 0 0 0
SMALL
GASTEIGER

@<TRIPOS>ATOM
      1 C         142.7787  139.2050  165.3594 C.ar    1  UNL1        0.1285
      2 N         142.8356  139.8924  166.6914 N.ar    1  UNL1       -0.2309
      3 C         141.5728  140.1395  167.4624 C.ar    1  UNL1        0.0828
      4 C         140.2532  139.6993  166.9014 C.ar    1  UNL1        0.0208
      5 C         140.1963  139.0119  165.5693 C.ar    1  UNL1        0.0234
      6 C         138.8767  138.5717  165.0083 C.ar    1  UNL1        0.0990
      7 N         138.8198  137.8843  163.6763 N.ar    1  UNL1       -0.2423
      8 C         140.0826  137.6372  162.9053 C.ar    1  UNL1        0.0990
      9 C         141.4022  138.0774  163.4663 C.ar    1  UNL1        0.0234
     10 C         141.4591  138.7648  164.7983 C.ar    1  UNL1        0.0345
     11 C         141.6298  140.8269  168.7944 C.ar    1  UNL1        0.0208
     12 C         142.4109  142.0980  168.9497 C.ar    1  UNL1        0.0222
     13 C         142.4678  142.7854  170.2817 C.ar    1  UNL1        0.0989
     14 N         141.7435  142.2016  171.4584 N.ar    1  UNL1       -0.2423
     15 C         140.9624  140.9305  171.3032 C.ar    1  UNL1        0.0989
     16 C         140.9056  140.2432  169.9712 C.ar    1  UNL1        0.0222
     17 N         144.0415  138.9579  164.5884 N.pl3   1  UNL1       -0.3170
     18 H         144.2101  138.0734  164.1904 H       1  UNL1        0.1482
     19 C         145.0473  140.0584  164.4239 C.3     1  UNL1        0.1038
     20 C         144.1962  140.4751  162.0048 C.3     1  UNL1        0.0186
     21 C         145.1360  140.8056  163.1263 C.3     1  UNL1        0.0707
     22 N         146.1645  141.8831  162.9501 N.3     1  UNL1       -0.3208
     23 H         146.0826  142.2816  162.0147 H       1  UNL1        0.1189
     24 H         147.0965  141.4865  163.0703 H       1  UNL1        0.1189
@<TRIPOS>BOND
     1    21    20    1
     2    21    22    1
     3    21    19    1
     4    19    17    1
     5    17     1    1
     6     1     2   ar
     7     2     3   ar
     8     3    11    1
     9    11    12   ar
    10    12    13   ar
    11    13    14   ar
    12    14    15   ar
    13    15    16   ar
    14     3     4   ar
    15     4     5   ar
    16     5     6   ar
    17     6     7   ar
    18     7     8   ar
    19     8     9   ar
    20     9    10   ar
    21    10     1   ar
    22    16    11   ar
    23    10     5   ar
    24    22    23    1
    25    22    24    1
    26    17    18    1
@<TRIPOS>MOLECULE
*****
 24 26 0 0 0
SMALL
GASTEIGER

@<TRIPOS>ATOM
      1 C         141.5673  140.9366  164.7091 C.ar    1  UNL1        0.1285
      2 N         141.5157  141.4341  166.1232 N.ar    1  UNL1       -0.2309
      3 C         140.5791  140.7994  167.1079 C.ar    1  UNL1        0.0828
      4 C         139.6939  139.6671  166.6786 C.ar    1  UNL1        0.0208
      5 C         139.7455  139.1695  165.2644 C.ar    1  UNL1        0.0234
      6 C         138.8604  138.0371  164.8350 C.ar    1  UNL1        0.0990
      7 N         138.9119  137.5396  163.4209 N.ar    1  UNL1       -0.2423
      8 C         139.8486  138.1744  162.4362 C.ar    1  UNL1        0.0990
      9 C         140.7337  139.3067  162.8655 C.ar    1  UNL1        0.0234
     10 C         140.6822  139.8042  164.2797 C.ar    1  UNL1        0.0345
     11 C         140.5275  141.2970  168.5221 C.ar    1  UNL1        0.0208
     12 C         140.3736  142.7637  168.7959 C.ar    1  UNL1        0.0222
     13 C         140.3220  143.2612  170.2101 C.ar    1  UNL1        0.0989
     14 N         140.4245  142.2920  171.3503 N.ar    1  UNL1       -0.2423
     15 C         140.5784  140.8253  171.0765 C.ar    1  UNL1        0.0989
     16 C         140.6299  140.3278  169.6624 C.ar    1  UNL1        0.0222
     17 N         142.5040  141.5714  163.7243 N.pl3   1  UNL1       -0.3170
     18 H         142.2247  141.6946  162.7884 H       1  UNL1        0.1482
     19 C         143.8661  142.0183  164.1657 C.3     1  UNL1        0.1038
     20 C         145.0629  139.7133  164.2369 C.3     1  UNL1        0.0186
     21 C         145.0663  141.1681  163.8712 C.3     1  UNL1        0.0707
     22 N         146.2700  141.7727  163.2112 N.3     1  UNL1       -0.3208
     23 H         146.9858  141.0566  163.0880 H       1  UNL1        0.1189
     24 H         146.6372  142.5234  163.7959 H       1  UNL1        0.1189
@<TRIPOS>BOND
     1    21    20    1
     2    21    22    1
     3    21    19    1
     4    19    17    1
     5    17     1    1
     6     1     2   ar
     7     2     3   ar
     8     3    11    1
     9    11    12   ar
    10    12    13   ar
    11    13    14   ar
    12    14    15   ar
    13    15    16   ar
    14     3     4   ar
    15     4     5   ar
    16     5     6   ar
    17     6     7   ar
    18     7     8   ar
    19     8     9   ar
    20     9    10   ar
    21    10     1   ar
    22    16    11   ar
    23    10     5   ar
    24    22    23    1
    25    22    24    1
    26    17    18    1
@<TRIPOS>MOLECULE
*****
 24 26 0 0 0
SMALL
GASTEIGER

@<TRIPOS>ATOM
      1 C         140.2559  141.7280  164.6206 C.ar    1  UNL1        0.1285
      2 N         140.4262  142.0717  166.0706 N.ar    1  UNL1       -0.2309
      3 C         140.0928  141.0590  167.1257 C.ar    1  UNL1        0.0828
      4 C         139.5891  139.7024  166.7306 C.ar    1  UNL1        0.0208
      5 C         139.4188  139.3586  165.2805 C.ar    1  UNL1        0.0234
      6 C         138.9151  138.0021  164.8854 C.ar    1  UNL1        0.0990
      7 N         138.7448  137.6584  163.4354 N.ar    1  UNL1       -0.2423
      8 C         139.0782  138.6712  162.3803 C.ar    1  UNL1        0.0990
      9 C         139.5819  140.0277  162.7754 C.ar    1  UNL1        0.0234
     10 C         139.7522  140.3714  164.2254 C.ar    1  UNL1        0.0345
     11 C         140.2631  141.4028  168.5758 C.ar    1  UNL1        0.0208
     12 C         140.4164  140.3106  169.5926 C.ar    1  UNL1        0.0222
     13 C         140.5867  140.6545  171.0426 C.ar    1  UNL1        0.0989
     14 N         140.6038  142.0904  171.4760 N.ar    1  UNL1       -0.2423
     15 C         140.4505  143.1825  170.4593 C.ar    1  UNL1        0.0989
     16 C         140.2802  142.8387  169.0092 C.ar    1  UNL1        0.0222
     17 N         140.5893  142.7408  163.5655 N.pl3   1  UNL1       -0.3170
     18 H         141.1548  142.4869  162.8006 H       1  UNL1        0.1482
     19 C         140.0612  144.1404  163.6758 C.3     1  UNL1        0.1038
     20 C         138.0829  144.6913  165.2674 C.3     1  UNL1        0.0186
     21 C         138.5956  144.3740  163.8939 C.3     1  UNL1        0.0707
     22 N         137.6428  144.2903  162.7385 N.3     1  UNL1       -0.3208
     23 H         136.6945  144.4752  163.0657 H       1  UNL1        0.1189
     24 H         137.6853  143.3568  162.3296 H       1  UNL1        0.1189
@<TRIPOS>BOND
     1    21    20    1
     2    21    22    1
     3    21    19    1
     4    19    17    1
     5    17     1    1
     6     1     2   ar
     7     2     3   ar
     8     3    11    1
     9    11    12   ar
    10    12    13   ar
    11    13    14   ar
    12    14    15   ar
    13    15    16   ar
    14     3     4   ar
    15     4     5   ar
    16     5     6   ar
    17     6     7   ar
    18     7     8   ar
    19     8     9   ar
    20     9    10   ar
    21    10     1   ar
    22    16    11   ar
    23    10     5   ar
    24    22    23    1
    25    22    24    1
    26    17    18    1
@<TRIPOS>MOLECULE
*****
 24 26 0 0 0
SMALL
GASTEIGER

@<TRIPOS>ATOM
      1 C         140.6216  141.9494  164.2857 C.ar    1  UNL1        0.1285
      2 N         140.9208  141.4484  165.6675 N.ar    1  UNL1       -0.2309
      3 C         142.2415  141.7577  166.3078 C.ar    1  UNL1        0.0828
      4 C         143.2630  142.5681  165.5663 C.ar    1  UNL1        0.0208
      5 C         142.9638  143.0692  164.1844 C.ar    1  UNL1        0.0234
      6 C         143.9853  143.8795  163.4430 C.ar    1  UNL1        0.0990
      7 N         143.6860  144.3805  162.0612 N.ar    1  UNL1       -0.2423
      8 C         142.3653  144.0712  161.4209 C.ar    1  UNL1        0.0990
      9 C         141.3438  143.2609  162.1624 C.ar    1  UNL1        0.0234
     10 C         141.6431  142.7598  163.5441 C.ar    1  UNL1        0.0345
     11 C         142.5407  141.2567  167.6897 C.ar    1  UNL1        0.0208
     12 C         142.3900  139.7986  168.0077 C.ar    1  UNL1        0.0222
     13 C         142.6892  139.2976  169.3895 C.ar    1  UNL1        0.0989
     14 N         143.1392  140.2547  170.4533 N.ar    1  UNL1       -0.2423
     15 C         143.2899  141.7127  170.1352 C.ar    1  UNL1        0.0989
     16 C         142.9907  142.2137  168.7534 C.ar    1  UNL1        0.0222
     17 N         139.3008  141.6401  163.6454 N.pl3   1  UNL1       -0.3170
     18 H         139.2427  140.9503  162.9454 H       1  UNL1        0.1482
     19 C         138.0687  142.3818  164.0716 C.3     1  UNL1        0.1038
     20 C         138.4269  144.7345  165.1141 C.3     1  UNL1        0.0186
     21 C         138.0149  143.8763  163.9548 C.3     1  UNL1        0.0707
     22 N         137.5492  144.5127  162.6788 N.3     1  UNL1       -0.3208
     23 H         137.5762  145.5277  162.7755 H       1  UNL1        0.1189
     24 H         136.5941  144.2154  162.4795 H       1  UNL1        0.1189
@<TRIPOS>BOND
     1    21    20    1
     2    21    22    1
     3    21    19    1
     4    19    17    1
     5    17     1    1
     6     1     2   ar
     7     2     3   ar
     8     3    11    1
     9    11    12   ar
    10    12    13   ar
    11    13    14   ar
    12    14    15   ar
    13    15    16   ar
    14     3     4   ar
    15     4     5   ar
    16     5     6   ar
    17     6     7   ar
    18     7     8   ar
    19     8     9   ar
    20     9    10   ar
    21    10     1   ar
    22    16    11   ar
    23    10     5   ar
    24    22    23    1
    25    22    24    1
    26    17    18    1
@<TRIPOS>MOLECULE
*****
 24 26 0 0 0
SMALL
GASTEIGER

@<TRIPOS>ATOM
      1 C         141.4807  140.2690  166.5453 C.ar    1  UNL1        0.1285
      2 N         140.8626  141.1057  165.4647 N.ar    1  UNL1       -0.2309
      3 C         140.3053  142.4597  165.7907 C.ar    1  UNL1        0.0828
      4 C         140.3662  142.9769  167.1974 C.ar    1  UNL1        0.0208
      5 C         140.9843  142.1401  168.2781 C.ar    1  UNL1        0.0234
      6 C         141.0451  142.6573  169.6848 C.ar    1  UNL1        0.0990
      7 N         141.6632  141.8206  170.7654 N.ar    1  UNL1       -0.2423
      8 C         142.2204  140.4666  170.4393 C.ar    1  UNL1        0.0990
      9 C         142.1596  139.9494  169.0327 C.ar    1  UNL1        0.0234
     10 C         141.5415  140.7862  167.9520 C.ar    1  UNL1        0.0345
     11 C         139.6872  143.2964  164.7100 C.ar    1  UNL1        0.0208
     12 C         140.4978  144.3579  164.0273 C.ar    1  UNL1        0.0222
     13 C         139.8797  145.1946  162.9466 C.ar    1  UNL1        0.0989
     14 N         138.4510  144.9698  162.5487 N.ar    1  UNL1       -0.2423
     15 C         137.6405  143.9083  163.2314 C.ar    1  UNL1        0.0989
     16 C         138.2586  143.0716  164.3121 C.ar    1  UNL1        0.0222
     17 N         142.0379  138.9150  166.2192 N.pl3   1  UNL1       -0.3170
     18 H         142.3451  138.3219  166.9425 H       1  UNL1        0.1482
     19 C         142.1273  138.4648  164.7912 C.3     1  UNL1        0.1038
     20 C         139.6731  137.6139  164.8449 C.3     1  UNL1        0.0186
     21 C         141.0240  137.6428  164.1936 C.3     1  UNL1        0.0707
     22 N         141.2717  136.8497  162.9448 N.3     1  UNL1       -0.3208
     23 H         140.4195  136.3550  162.6815 H       1  UNL1        0.1189
     24 H         142.0183  136.1753  163.1127 H       1  UNL1        0.1189
@<TRIPOS>BOND
     1    21    20    1
     2    21    22    1
     3    21    19    1
     4    19    17    1
     5    17     1    1
     6     1     2   ar
     7     2     3   ar
     8     3    11    1
     9    11    12   ar
    10    12    13   ar
    11    13    14   ar
    12    14    15   ar
    13    15    16   ar
    14     3     4   ar
    15     4     5   ar
    16     5     6   ar
    17     6     7   ar
    18     7     8   ar
    19     8     9   ar
    20     9    10   ar
    21    10     1   ar
    22    16    11   ar
    23    10     5   ar
    24    22    23    1
    25    22    24    1
    26    17    18    1
