@<TRIPOS>MOLECULE
*****
 35 38 0 0 0
SMALL
GASTEIGER

@<TRIPOS>ATOM
      1 S         143.1321  140.6522  164.8075 S.O2    1  UNL1        0.0134
      2 O         144.4693  140.7991  164.6940 O.2     1  UNL1       -0.1683
      3 O         141.6505  140.4221  164.7631 O.2     1  UNL1       -0.1683
      4 C         143.0073  141.1861  166.2037 C.3     1  UNL1        0.1845
      5 C         142.7750  139.7486  166.5641 C.3     1  UNL1        0.0313
      6 C         142.5606  139.6714  168.0467 C.3     1  UNL1        0.0024
      7 C         142.6605  141.0610  168.6026 C.3     1  UNL1        0.0048
      8 C         142.7868  142.4987  169.0114 C.3     1  UNL1        0.0172
      9 C         142.6369  142.8844  170.4531 C.3     1  UNL1        0.0686
     10 N         142.3607  141.8325  171.4861 N.3     1  UNL1       -0.2975
     11 C         142.2345  140.3948  171.0774 C.3     1  UNL1        0.0686
     12 C         142.3843  140.0091  169.6357 C.3     1  UNL1        0.0172
     13 C         142.9366  141.9972  167.4636 C.3     1  UNL1        0.0314
     14 H         141.4833  142.0880  171.9393 H       1  UNL1        0.1232
     15 C         143.2658  142.5118  165.5515 C.2     1  UNL1        0.2644
     16 O         144.4025  143.2378  165.6092 O.2     1  UNL1       -0.2713
     17 N         142.1941  143.1653  164.7302 N.am    1  UNL1       -0.1956
     18 O         142.4527  144.4912  164.0780 O.3     1  UNL1       -0.2951
     19 H         141.3211  142.7241  164.6192 H       1  UNL1        0.1823
     20 H         143.3539  144.7836  164.2860 H       1  UNL1        0.2414
     21 C         143.5064  139.0505  160.6189 C.ar    1  UNL1        0.1454
     22 C         143.2145  138.1166  161.7557 C.ar    1  UNL1        0.0388
     23 C         143.0897  138.6505  163.1519 C.ar    1  UNL1        0.0215
     24 C         143.2569  140.1183  163.4113 C.ar    1  UNL1        0.1063
     25 C         143.5489  141.0523  162.2745 C.ar    1  UNL1        0.0215
     26 C         143.6736  140.5184  160.8783 C.ar    1  UNL1        0.0388
     27 O         143.6312  138.5166  159.2227 O.3     1  UNL1       -0.4535
     28 C         139.9387  137.4348  156.8891 C.ar    1  UNL1        0.1389
     29 C         139.8389  138.3635  158.0628 C.ar    1  UNL1        0.0400
     30 C         141.0697  138.7241  158.8406 C.ar    1  UNL1        0.0406
     31 C         142.4004  138.1560  158.4448 C.ar    1  UNL1        0.1455
     32 C         142.5002  137.2273  157.2712 C.ar    1  UNL1        0.0406
     33 C         141.2693  136.8667  156.4933 C.ar    1  UNL1        0.0400
     34 C         138.6881  137.2381  154.6204 C.3     1  UNL1        0.2525
     35 O         138.7080  137.0742  156.1113 O.3     1  UNL1       -0.4714
@<TRIPOS>BOND
     1    34    35    1
     2    35    28    1
     3    28    29   ar
     4    29    30   ar
     5    30    31   ar
     6    31    27    1
     7    27    21    1
     8    21    22   ar
     9    22    23   ar
    10    23    24   ar
    11    24     1    1
    12     1     2    2
    13     1     3    2
    14     1     4    1
    15     4    15    1
    16    15    16    2
    17    15    17   am
    18    17    18    1
    19     4     5    1
    20     5     6    1
    21     6     7    1
    22     7     8    1
    23     8     9    1
    24     9    10    1
    25    10    11    1
    26    11    12    1
    27     7    13    1
    28    24    25   ar
    29    25    26   ar
    30    31    32   ar
    31    32    33   ar
    32    33    28   ar
    33    26    21   ar
    34    13     4    1
    35    12     7    1
    36    17    19    1
    37    18    20    1
    38    10    14    1
@<TRIPOS>MOLECULE
*****
 35 38 0 0 0
SMALL
GASTEIGER

@<TRIPOS>ATOM
      1 S         139.1963  140.0846  164.5654 S.O2    1  UNL1        0.0134
      2 O         137.8527  140.2150  164.5542 O.2     1  UNL1       -0.1683
      3 O         140.6780  139.9231  164.3959 O.2     1  UNL1       -0.1683
      4 C         139.3798  140.2110  166.0487 C.3     1  UNL1        0.1845
      5 C         139.9179  141.5691  165.7079 C.3     1  UNL1        0.0313
      6 C         140.3135  142.2454  166.9870 C.3     1  UNL1        0.0024
      7 C         140.0199  141.3053  168.1185 C.3     1  UNL1        0.0048
      8 C         139.6745  140.2641  169.1415 C.3     1  UNL1        0.0172
      9 C         139.9156  140.5339  170.5972 C.3     1  UNL1        0.0686
     10 N         140.5021  141.8449  171.0298 N.3     1  UNL1       -0.2975
     11 C         140.8475  142.8861  170.0068 C.3     1  UNL1        0.0686
     12 C         140.6064  142.6163  168.5512 C.3     1  UNL1        0.0172
     13 C         139.4429  140.0480  167.5386 C.3     1  UNL1        0.0314
     14 H         141.3626  141.6305  171.5339 H       1  UNL1        0.1232
     15 C         138.8035  138.8266  166.0796 C.2     1  UNL1        0.2644
     16 O         139.2777  137.7347  165.4428 O.2     1  UNL1       -0.2713
     17 N         137.5677  138.5463  166.8822 N.am    1  UNL1       -0.1956
     18 O         136.9913  137.1617  166.9130 O.3     1  UNL1       -0.2951
     19 H         137.1348  139.2710  167.3888 H       1  UNL1        0.1823
     20 H         137.5342  136.5733  166.3653 H       1  UNL1        0.2414
     21 C         138.6457  139.7054  160.1154 C.ar    1  UNL1        0.1454
     22 C         137.6597  140.4901  160.9290 C.ar    1  UNL1        0.0388
     23 C         137.8432  140.6165  162.4123 C.ar    1  UNL1        0.0215
     24 C         139.0128  139.9582  163.0821 C.ar    1  UNL1        0.1063
     25 C         139.9989  139.1735  162.2685 C.ar    1  UNL1        0.0215
     26 C         139.8153  139.0471  160.7852 C.ar    1  UNL1        0.0388
     27 O         138.4622  139.5790  158.6321 O.3     1  UNL1       -0.4535
     28 C         137.3732  143.1942  156.1835 C.ar    1  UNL1        0.1389
     29 C         138.6530  143.1758  156.9655 C.ar    1  UNL1        0.0400
     30 C         139.0160  141.9708  157.7817 C.ar    1  UNL1        0.0406
     31 C         138.0991  140.7841  157.8158 C.ar    1  UNL1        0.1455
     32 C         136.8193  140.8025  157.0338 C.ar    1  UNL1        0.0406
     33 C         136.4563  142.0075  156.2176 C.ar    1  UNL1        0.0400
     34 C         138.0125  145.4961  155.1627 C.3     1  UNL1        0.2525
     35 O         137.0102  144.3991  155.3673 O.3     1  UNL1       -0.4714
@<TRIPOS>BOND
     1    34    35    1
     2    35    28    1
     3    28    29   ar
     4    29    30   ar
     5    30    31   ar
     6    31    27    1
     7    27    21    1
     8    21    22   ar
     9    22    23   ar
    10    23    24   ar
    11    24     1    1
    12     1     2    2
    13     1     3    2
    14     1     4    1
    15     4    15    1
    16    15    16    2
    17    15    17   am
    18    17    18    1
    19     4     5    1
    20     5     6    1
    21     6     7    1
    22     7     8    1
    23     8     9    1
    24     9    10    1
    25    10    11    1
    26    11    12    1
    27     7    13    1
    28    24    25   ar
    29    25    26   ar
    30    31    32   ar
    31    32    33   ar
    32    33    28   ar
    33    26    21   ar
    34    13     4    1
    35    12     7    1
    36    17    19    1
    37    18    20    1
    38    10    14    1
@<TRIPOS>MOLECULE
*****
 35 38 0 0 0
SMALL
GASTEIGER

@<TRIPOS>ATOM
      1 S         139.3726  140.0707  164.6973 S.O2    1  UNL1        0.0134
      2 O         138.0303  140.1958  164.6275 O.2     1  UNL1       -0.1683
      3 O         140.8596  139.9019  164.5942 O.2     1  UNL1       -0.1683
      4 C         139.5017  140.3058  166.1731 C.3     1  UNL1        0.1845
      5 C         140.0512  141.6371  165.7537 C.3     1  UNL1        0.0313
      6 C         140.3993  142.4062  166.9935 C.3     1  UNL1        0.0024
      7 C         140.0650  141.5503  168.1793 C.3     1  UNL1        0.0048
      8 C         139.6829  140.5856  169.2624 C.3     1  UNL1        0.0172
      9 C         139.8704  140.9618  170.7022 C.3     1  UNL1        0.0686
     10 N         140.4400  142.3028  171.0590 N.3     1  UNL1       -0.2975
     11 C         140.8221  143.2676  169.9759 C.3     1  UNL1        0.0686
     12 C         140.6346  142.8913  168.5360 C.3     1  UNL1        0.0172
     13 C         139.5102  140.2522  167.6722 C.3     1  UNL1        0.0314
     14 H         141.2815  142.1286  171.6084 H       1  UNL1        0.1232
     15 C         138.9253  138.9254  166.2840 C.2     1  UNL1        0.2644
     16 O         139.4571  137.7818  165.8025 O.2     1  UNL1       -0.2713
     17 N         137.6202  138.7122  166.9920 N.am    1  UNL1       -0.1956
     18 O         137.0439  137.3318  167.1029 O.3     1  UNL1       -0.2951
     19 H         137.1419  139.4783  167.3839 H       1  UNL1        0.1823
     20 H         137.6356  136.6984  166.6674 H       1  UNL1        0.2414
     21 C         138.9855  139.3657  160.2698 C.ar    1  UNL1        0.1454
     22 C         138.5949  138.2885  161.2377 C.ar    1  UNL1        0.0388
     23 C         138.7240  138.5235  162.7136 C.ar    1  UNL1        0.0215
     24 C         139.2436  139.8357  163.2214 C.ar    1  UNL1        0.1063
     25 C         139.6342  140.9130  162.2535 C.ar    1  UNL1        0.0215
     26 C         139.5051  140.6780  160.7777 C.ar    1  UNL1        0.0388
     27 O         138.8564  139.1307  158.7940 O.3     1  UNL1       -0.4535
     28 C         142.0628  136.8735  156.5860 C.ar    1  UNL1        0.1389
     29 C         140.6585  136.8894  156.0590 C.ar    1  UNL1        0.0400
     30 C         139.5897  137.6418  156.7950 C.ar    1  UNL1        0.0406
     31 C         139.9253  138.3783  158.0580 C.ar    1  UNL1        0.1455
     32 C         141.3296  138.3624  158.5849 C.ar    1  UNL1        0.0406
     33 C         142.3983  137.6100  157.8490 C.ar    1  UNL1        0.0400
     34 C         143.7635  134.9127  156.4747 C.3     1  UNL1        0.2525
     35 O         143.1315  136.1212  155.8501 O.3     1  UNL1       -0.4714
@<TRIPOS>BOND
     1    34    35    1
     2    35    28    1
     3    28    29   ar
     4    29    30   ar
     5    30    31   ar
     6    31    27    1
     7    27    21    1
     8    21    22   ar
     9    22    23   ar
    10    23    24   ar
    11    24     1    1
    12     1     2    2
    13     1     3    2
    14     1     4    1
    15     4    15    1
    16    15    16    2
    17    15    17   am
    18    17    18    1
    19     4     5    1
    20     5     6    1
    21     6     7    1
    22     7     8    1
    23     8     9    1
    24     9    10    1
    25    10    11    1
    26    11    12    1
    27     7    13    1
    28    24    25   ar
    29    25    26   ar
    30    31    32   ar
    31    32    33   ar
    32    33    28   ar
    33    26    21   ar
    34    13     4    1
    35    12     7    1
    36    17    19    1
    37    18    20    1
    38    10    14    1
@<TRIPOS>MOLECULE
*****
 35 38 0 0 0
SMALL
GASTEIGER

@<TRIPOS>ATOM
      1 S         141.5668  139.4571  164.8246 S.O2    1  UNL1        0.0134
      2 O         141.4672  140.7328  164.3942 O.2     1  UNL1       -0.1683
      3 O         141.7354  137.9990  165.1339 O.2     1  UNL1       -0.1683
      4 C         141.1010  139.7012  166.2293 C.3     1  UNL1        0.1845
      5 C         142.5676  139.7312  166.5430 C.3     1  UNL1        0.0313
      6 C         142.7219  139.9769  168.0147 C.3     1  UNL1        0.0024
      7 C         141.3507  140.0988  168.6106 C.3     1  UNL1        0.0048
      8 C         139.9236  140.1972  169.0617 C.3     1  UNL1        0.0172
      9 C         139.6094  140.4458  170.5072 C.3     1  UNL1        0.0686
     10 N         140.7224  140.5961  171.5016 N.3     1  UNL1       -0.2975
     11 C         142.1495  140.4977  171.0505 C.3     1  UNL1        0.0686
     12 C         142.4637  140.2491  169.6050 C.3     1  UNL1        0.0172
     13 C         140.3489  139.9285  167.5073 C.3     1  UNL1        0.0314
     14 H         140.5861  139.8725  172.2075 H       1  UNL1        0.1232
     15 C         139.7318  139.6203  165.6221 C.2     1  UNL1        0.2644
     16 O         139.1033  138.5102  165.1804 O.2     1  UNL1       -0.2713
     17 N         138.9109  140.8644  165.4545 N.am    1  UNL1       -0.1956
     18 O         137.5417  140.7833  164.8472 O.3     1  UNL1       -0.2951
     19 H         139.2707  141.7342  165.7430 H       1  UNL1        0.1823
     20 H         137.3425  139.8614  164.6206 H       1  UNL1        0.2414
     21 C         142.9641  138.7247  160.6102 C.ar    1  UNL1        0.1454
     22 C         143.2143  140.0515  161.2635 C.ar    1  UNL1        0.0388
     23 C         142.7485  140.2957  162.6682 C.ar    1  UNL1        0.0215
     24 C         142.0325  139.2130  163.4198 C.ar    1  UNL1        0.1063
     25 C         141.7822  137.8861  162.7666 C.ar    1  UNL1        0.0215
     26 C         142.2480  137.6419  161.3618 C.ar    1  UNL1        0.0388
     27 O         143.4298  138.4806  159.2055 O.3     1  UNL1       -0.4535
     28 C         140.5197  137.0460  156.0872 C.ar    1  UNL1        0.1389
     29 C         141.8736  136.4099  156.1986 C.ar    1  UNL1        0.0400
     30 C         142.8436  136.8881  157.2380 C.ar    1  UNL1        0.0406
     31 C         142.4597  138.0024  158.1660 C.ar    1  UNL1        0.1455
     32 C         141.1059  138.6384  158.0546 C.ar    1  UNL1        0.0406
     33 C         140.1358  138.1602  157.0152 C.ar    1  UNL1        0.0400
     34 C         140.0110  136.3427  153.6384 C.3     1  UNL1        0.2525
     35 O         139.5496  136.5678  155.0479 O.3     1  UNL1       -0.4714
@<TRIPOS>BOND
     1    34    35    1
     2    35    28    1
     3    28    29   ar
     4    29    30   ar
     5    30    31   ar
     6    31    27    1
     7    27    21    1
     8    21    22   ar
     9    22    23   ar
    10    23    24   ar
    11    24     1    1
    12     1     2    2
    13     1     3    2
    14     1     4    1
    15     4    15    1
    16    15    16    2
    17    15    17   am
    18    17    18    1
    19     4     5    1
    20     5     6    1
    21     6     7    1
    22     7     8    1
    23     8     9    1
    24     9    10    1
    25    10    11    1
    26    11    12    1
    27     7    13    1
    28    24    25   ar
    29    25    26   ar
    30    31    32   ar
    31    32    33   ar
    32    33    28   ar
    33    26    21   ar
    34    13     4    1
    35    12     7    1
    36    17    19    1
    37    18    20    1
    38    10    14    1
@<TRIPOS>MOLECULE
*****
 35 38 0 0 0
SMALL
GASTEIGER

@<TRIPOS>ATOM
      1 S         141.1458  139.5160  165.0018 S.O2    1  UNL1        0.0134
      2 O         141.1056  138.1668  164.9780 O.2     1  UNL1       -0.1683
      3 O         141.1355  141.0087  164.8537 O.2     1  UNL1       -0.1683
      4 C         141.5971  139.6603  166.4249 C.3     1  UNL1        0.1845
      5 C         140.2017  140.1622  166.6512 C.3     1  UNL1        0.0313
      6 C         140.0626  140.5056  168.1048 C.3     1  UNL1        0.0024
      7 C         141.3720  140.2158  168.7769 C.3     1  UNL1        0.0048
      8 C         142.7339  139.8802  169.3084 C.3     1  UNL1        0.0172
      9 C         143.0410  140.0781  170.7632 C.3     1  UNL1        0.0686
     10 N         141.9861  140.6117  171.6865 N.3     1  UNL1       -0.2975
     11 C         140.6242  140.9474  171.1551 C.3     1  UNL1        0.0686
     12 C         140.3172  140.7495  169.7003 C.3     1  UNL1        0.0172
     13 C         142.3203  139.6935  167.7387 C.3     1  UNL1        0.0314
     14 H         142.3604  141.4665  172.0984 H       1  UNL1        0.1232
     15 C         142.8980  139.1283  165.9013 C.2     1  UNL1        0.2644
     16 O         143.4619  137.9354  166.1870 O.2     1  UNL1       -0.2713
     17 N         143.7183  139.9522  164.9534 N.am    1  UNL1       -0.1956
     18 O         145.0193  139.4200  164.4298 O.3     1  UNL1       -0.2951
     19 H         143.4027  140.8422  164.6749 H       1  UNL1        0.1823
     20 H         145.1802  138.5379  164.7999 H       1  UNL1        0.2414
     21 C         139.7921  139.0829  160.7322 C.ar    1  UNL1        0.1454
     22 C         140.3075  140.4023  161.2254 C.ar    1  UNL1        0.0388
     23 C         140.7587  140.5467  162.6486 C.ar    1  UNL1        0.0215
     24 C         140.6946  139.3716  163.5786 C.ar    1  UNL1        0.1063
     25 C         140.1792  138.0521  163.0854 C.ar    1  UNL1        0.0215
     26 C         139.7279  137.9077  161.6622 C.ar    1  UNL1        0.0388
     27 O         139.3408  138.9385  159.3090 O.3     1  UNL1       -0.4535
     28 C         142.1100  137.1602  156.2398 C.ar    1  UNL1        0.1389
     29 C         140.6245  137.0573  156.0588 C.ar    1  UNL1        0.0400
     30 C         139.7015  137.6501  157.0818 C.ar    1  UNL1        0.0406
     31 C         140.2639  138.3457  158.2859 C.ar    1  UNL1        0.1455
     32 C         141.7494  138.4486  158.4669 C.ar    1  UNL1        0.0406
     33 C         142.6724  137.8559  157.4438 C.ar    1  UNL1        0.0400
     34 C         143.9013  135.3988  155.5777 C.3     1  UNL1        0.2525
     35 O         143.0330  136.5675  155.2168 O.3     1  UNL1       -0.4714
@<TRIPOS>BOND
     1    34    35    1
     2    35    28    1
     3    28    29   ar
     4    29    30   ar
     5    30    31   ar
     6    31    27    1
     7    27    21    1
     8    21    22   ar
     9    22    23   ar
    10    23    24   ar
    11    24     1    1
    12     1     2    2
    13     1     3    2
    14     1     4    1
    15     4    15    1
    16    15    16    2
    17    15    17   am
    18    17    18    1
    19     4     5    1
    20     5     6    1
    21     6     7    1
    22     7     8    1
    23     8     9    1
    24     9    10    1
    25    10    11    1
    26    11    12    1
    27     7    13    1
    28    24    25   ar
    29    25    26   ar
    30    31    32   ar
    31    32    33   ar
    32    33    28   ar
    33    26    21   ar
    34    13     4    1
    35    12     7    1
    36    17    19    1
    37    18    20    1
    38    10    14    1
@<TRIPOS>MOLECULE
*****
 35 38 0 0 0
SMALL
GASTEIGER

@<TRIPOS>ATOM
      1 S         139.6069  143.1000  160.6195 S.O2    1  UNL1        0.0134
      2 O         140.9228  142.8553  160.7959 O.2     1  UNL1       -0.1683
      3 O         138.1186  143.2838  160.5818 O.2     1  UNL1       -0.1683
      4 C         139.7306  143.8347  159.3176 C.3     1  UNL1        0.1845
      5 C         139.0688  142.6153  158.7472 C.3     1  UNL1        0.0313
      6 C         138.9165  142.8192  157.2690 C.3     1  UNL1        0.0024
      7 C         139.4841  144.1646  156.9257 C.3     1  UNL1        0.0048
      8 C         140.0845  145.5259  156.7351 C.3     1  UNL1        0.0172
      9 C         140.1394  146.1364  155.3661 C.3     1  UNL1        0.0686
     10 N         139.5937  145.3857  154.1877 N.3     1  UNL1       -0.2975
     11 C         138.9932  144.0244  154.3782 C.3     1  UNL1        0.0686
     12 C         138.9384  143.4139  155.7472 C.3     1  UNL1        0.0172
     13 C         139.9872  144.7922  158.1918 C.3     1  UNL1        0.0314
     14 H         140.3620  145.2785  153.5254 H       1  UNL1        0.1232
     15 C         140.3665  144.9005  160.1600 C.2     1  UNL1        0.2644
     16 O         141.6411  145.3396  160.0889 O.2     1  UNL1       -0.2713
     17 N         139.5638  145.5999  161.2166 N.am    1  UNL1       -0.1956
     18 O         140.1998  146.6657  162.0590 O.3     1  UNL1       -0.2951
     19 H         138.6195  145.3595  161.3572 H       1  UNL1        0.1823
     20 H         141.1258  146.7782  161.7932 H       1  UNL1        0.2414
     21 C         139.2359  140.8960  164.5251 C.ar    1  UNL1        0.1454
     22 C         138.1908  141.8949  164.1254 C.ar    1  UNL1        0.0388
     23 C         138.3145  142.6296  162.8236 C.ar    1  UNL1        0.0215
     24 C         139.4832  142.3654  161.9214 C.ar    1  UNL1        0.1063
     25 C         140.5284  141.3664  162.3210 C.ar    1  UNL1        0.0215
     26 C         140.4047  140.6317  163.6229 C.ar    1  UNL1        0.0388
     27 O         139.1122  140.1613  165.8270 O.3     1  UNL1       -0.4535
     28 C         140.8824  141.9122  169.5756 C.ar    1  UNL1        0.1389
     29 C         141.0627  142.6141  168.2623 C.ar    1  UNL1        0.0400
     30 C         140.4726  142.0305  167.0128 C.ar    1  UNL1        0.0406
     31 C         139.7023  140.7449  167.0766 C.ar    1  UNL1        0.1455
     32 C         139.5220  140.0431  168.3899 C.ar    1  UNL1        0.0406
     33 C         140.1120  140.6267  169.6394 C.ar    1  UNL1        0.0400
     34 C         142.7691  143.2472  170.7622 C.3     1  UNL1        0.2525
     35 O         141.4724  142.4957  170.8250 O.3     1  UNL1       -0.4714
@<TRIPOS>BOND
     1    34    35    1
     2    35    28    1
     3    28    29   ar
     4    29    30   ar
     5    30    31   ar
     6    31    27    1
     7    27    21    1
     8    21    22   ar
     9    22    23   ar
    10    23    24   ar
    11    24     1    1
    12     1     2    2
    13     1     3    2
    14     1     4    1
    15     4    15    1
    16    15    16    2
    17    15    17   am
    18    17    18    1
    19     4     5    1
    20     5     6    1
    21     6     7    1
    22     7     8    1
    23     8     9    1
    24     9    10    1
    25    10    11    1
    26    11    12    1
    27     7    13    1
    28    24    25   ar
    29    25    26   ar
    30    31    32   ar
    31    32    33   ar
    32    33    28   ar
    33    26    21   ar
    34    13     4    1
    35    12     7    1
    36    17    19    1
    37    18    20    1
    38    10    14    1
@<TRIPOS>MOLECULE
*****
 35 38 0 0 0
SMALL
GASTEIGER

@<TRIPOS>ATOM
      1 S         139.9049  141.0717  164.7758 S.O2    1  UNL1        0.0134
      2 O         141.2101  140.9530  164.4519 O.2     1  UNL1       -0.1683
      3 O         138.4187  141.1424  164.9669 O.2     1  UNL1       -0.1683
      4 C         140.1086  141.5782  166.1729 C.3     1  UNL1        0.1845
      5 C         139.8848  140.1454  166.5566 C.3     1  UNL1        0.0313
      6 C         139.9881  140.0438  168.0496 C.3     1  UNL1        0.0024
      7 C         140.2758  141.4138  168.5887 C.3     1  UNL1        0.0048
      8 C         140.5602  142.8339  168.9790 C.3     1  UNL1        0.0172
      9 C         140.7415  143.1925  170.4241 C.3     1  UNL1        0.0686
     10 N         140.6384  142.1311  171.4790 N.3     1  UNL1       -0.2975
     11 C         140.3540  140.7110  171.0887 C.3     1  UNL1        0.0686
     12 C         140.1726  140.3524  169.6436 C.3     1  UNL1        0.0172
     13 C         140.3502  142.3621  167.4289 C.3     1  UNL1        0.0314
     14 H         139.8923  142.4174  172.1128 H       1  UNL1        0.1232
     15 C         140.2898  142.9050  165.4973 C.2     1  UNL1        0.2644
     16 O         141.4429  143.4266  165.0271 O.2     1  UNL1       -0.2713
     17 N         139.1096  143.8061  165.2850 N.am    1  UNL1       -0.1956
     18 O         139.2909  145.1329  164.6093 O.3     1  UNL1       -0.2951
     19 H         138.2159  143.5266  165.5891 H       1  UNL1        0.1823
     20 H         140.2247  145.2517  164.3753 H       1  UNL1        0.2414
     21 C         139.2938  139.5523  160.5845 C.ar    1  UNL1        0.1454
     22 C         139.1535  138.6175  161.7490 C.ar    1  UNL1        0.0388
     23 C         139.3572  139.1240  163.1461 C.ar    1  UNL1        0.0215
     24 C         139.7012  140.5653  163.3787 C.ar    1  UNL1        0.1063
     25 C         139.8415  141.5002  162.2141 C.ar    1  UNL1        0.0215
     26 C         139.6378  140.9937  160.8170 C.ar    1  UNL1        0.0388
     27 O         139.0900  139.0459  159.1873 O.3     1  UNL1       -0.4535
     28 C         142.4539  136.9747  157.0320 C.ar    1  UNL1        0.1389
     29 C         142.7205  137.6984  158.3185 C.ar    1  UNL1        0.0400
     30 C         141.5992  138.3888  159.0369 C.ar    1  UNL1        0.0406
     31 C         140.2113  138.3555  158.4689 C.ar    1  UNL1        0.1455
     32 C         139.9447  137.6317  157.1824 C.ar    1  UNL1        0.0406
     33 C         141.0660  136.9413  156.4639 C.ar    1  UNL1        0.0400
     34 C         143.7230  134.7948  156.4099 C.3     1  UNL1        0.2525
     35 O         143.5750  136.2843  156.3136 O.3     1  UNL1       -0.4714
@<TRIPOS>BOND
     1    34    35    1
     2    35    28    1
     3    28    29   ar
     4    29    30   ar
     5    30    31   ar
     6    31    27    1
     7    27    21    1
     8    21    22   ar
     9    22    23   ar
    10    23    24   ar
    11    24     1    1
    12     1     2    2
    13     1     3    2
    14     1     4    1
    15     4    15    1
    16    15    16    2
    17    15    17   am
    18    17    18    1
    19     4     5    1
    20     5     6    1
    21     6     7    1
    22     7     8    1
    23     8     9    1
    24     9    10    1
    25    10    11    1
    26    11    12    1
    27     7    13    1
    28    24    25   ar
    29    25    26   ar
    30    31    32   ar
    31    32    33   ar
    32    33    28   ar
    33    26    21   ar
    34    13     4    1
    35    12     7    1
    36    17    19    1
    37    18    20    1
    38    10    14    1
@<TRIPOS>MOLECULE
*****
 35 38 0 0 0
SMALL
GASTEIGER

@<TRIPOS>ATOM
      1 S         139.2895  140.6709  165.0982 S.O2    1  UNL1        0.0134
      2 O         137.9462  140.7879  165.1629 O.2     1  UNL1       -0.1683
      3 O         140.7640  140.5612  164.8451 O.2     1  UNL1       -0.1683
      4 C         139.5291  140.4982  166.5688 C.3     1  UNL1        0.1845
      5 C         140.1080  141.8789  166.4768 C.3     1  UNL1        0.0313
      6 C         140.5738  142.2784  167.8455 C.3     1  UNL1        0.0024
      7 C         140.2828  141.1445  168.7835 C.3     1  UNL1        0.0048
      8 C         139.9324  139.9345  169.5977 C.3     1  UNL1        0.0172
      9 C         140.2341  139.9060  171.0668 C.3     1  UNL1        0.0686
     10 N         140.8863  141.0874  171.7216 N.3     1  UNL1       -0.2975
     11 C         141.2368  142.2974  170.9074 C.3     1  UNL1        0.0686
     12 C         140.9351  142.3260  169.4384 C.3     1  UNL1        0.0172
     13 C         139.6371  140.0443  167.9945 C.3     1  UNL1        0.0314
     14 H         141.7546  140.7511  172.1380 H       1  UNL1        0.1232
     15 C         138.9001  139.1536  166.3535 C.2     1  UNL1        0.2644
     16 O         139.3176  138.1874  165.5081 O.2     1  UNL1       -0.2713
     17 N         137.6722  138.7678  167.1238 N.am    1  UNL1       -0.1956
     18 O         137.0433  137.4232  166.9084 O.3     1  UNL1       -0.2951
     19 H         137.2790  139.3972  167.7708 H       1  UNL1        0.1823
     20 H         137.5509  136.9316  166.2438 H       1  UNL1        0.2414
     21 C         138.5708  141.1891  160.6863 C.ar    1  UNL1        0.1454
     22 C         139.8077  141.7573  161.3166 C.ar    1  UNL1        0.0388
     23 C         140.0473  141.5845  162.7872 C.ar    1  UNL1        0.0215
     24 C         139.0500  140.8436  163.6276 C.ar    1  UNL1        0.1063
     25 C         137.8130  140.2755  162.9974 C.ar    1  UNL1        0.0215
     26 C         137.5735  140.4482  161.5268 C.ar    1  UNL1        0.0388
     27 O         138.3313  141.3619  159.2157 O.3     1  UNL1       -0.4535
     28 C         139.6125  138.1509  156.3349 C.ar    1  UNL1        0.1389
     29 C         139.9215  138.0141  157.7964 C.ar    1  UNL1        0.0400
     30 C         139.4944  139.0844  158.7566 C.ar    1  UNL1        0.0406
     31 C         138.7584  140.2915  158.2554 C.ar    1  UNL1        0.1455
     32 C         138.4494  140.4283  156.7940 C.ar    1  UNL1        0.0406
     33 C         138.8764  139.3580  155.8337 C.ar    1  UNL1        0.0400
     34 C         139.3483  136.9416  154.0507 C.3     1  UNL1        0.2525
     35 O         140.0395  137.0807  155.3747 O.3     1  UNL1       -0.4714
@<TRIPOS>BOND
     1    34    35    1
     2    35    28    1
     3    28    29   ar
     4    29    30   ar
     5    30    31   ar
     6    31    27    1
     7    27    21    1
     8    21    22   ar
     9    22    23   ar
    10    23    24   ar
    11    24     1    1
    12     1     2    2
    13     1     3    2
    14     1     4    1
    15     4    15    1
    16    15    16    2
    17    15    17   am
    18    17    18    1
    19     4     5    1
    20     5     6    1
    21     6     7    1
    22     7     8    1
    23     8     9    1
    24     9    10    1
    25    10    11    1
    26    11    12    1
    27     7    13    1
    28    24    25   ar
    29    25    26   ar
    30    31    32   ar
    31    32    33   ar
    32    33    28   ar
    33    26    21   ar
    34    13     4    1
    35    12     7    1
    36    17    19    1
    37    18    20    1
    38    10    14    1
@<TRIPOS>MOLECULE
*****
 35 38 0 0 0
SMALL
GASTEIGER

@<TRIPOS>ATOM
      1 S         141.2554  142.0721  164.9541 S.O2    1  UNL1        0.0134
      2 O         141.5130  140.8486  164.4451 O.2     1  UNL1       -0.1683
      3 O         141.0148  143.4975  165.3551 O.2     1  UNL1       -0.1683
      4 C         140.8660  141.6194  166.3301 C.3     1  UNL1        0.1845
      5 C         142.1584  142.2632  166.7368 C.3     1  UNL1        0.0313
      6 C         142.3146  142.0935  168.2189 C.3     1  UNL1        0.0024
      7 C         141.1187  141.3448  168.7284 C.3     1  UNL1        0.0048
      8 C         139.8717  140.5935  169.0894 C.3     1  UNL1        0.0172
      9 C         139.6160  140.2059  170.5157 C.3     1  UNL1        0.0686
     10 N         140.6074  140.5696  171.5810 N.3     1  UNL1       -0.2975
     11 C         141.8544  141.3209  171.2200 C.3     1  UNL1        0.0686
     12 C         142.1101  141.7085  169.7937 C.3     1  UNL1        0.0172
     13 C         140.2235  141.0518  167.5610 C.3     1  UNL1        0.0314
     14 H         140.9052  139.6967  172.0165 H       1  UNL1        0.1232
     15 C         139.6551  141.0702  165.6359 C.2     1  UNL1        0.2644
     16 O         139.3125  139.7709  165.5060 O.2     1  UNL1       -0.2713
     17 N         138.6721  142.0027  164.9923 N.am    1  UNL1       -0.1956
     18 O         137.4611  141.4534  164.2982 O.3     1  UNL1       -0.2951
     19 H         138.8217  142.9752  165.0255 H       1  UNL1        0.1823
     20 H         137.4659  140.4852  164.3573 H       1  UNL1        0.2414
     21 C         142.4235  143.4304  160.8262 C.ar    1  UNL1        0.1454
     22 C         142.2307  141.9700  161.1086 C.ar    1  UNL1        0.0388
     23 C         141.8413  141.5173  162.4846 C.ar    1  UNL1        0.0215
     24 C         141.6448  142.5249  163.5781 C.ar    1  UNL1        0.1063
     25 C         141.8376  143.9854  163.2957 C.ar    1  UNL1        0.0215
     26 C         142.2270  144.4382  161.9197 C.ar    1  UNL1        0.0388
     27 O         142.8129  143.8832  159.4502 O.3     1  UNL1       -0.4535
     28 C         139.6409  145.1099  156.5033 C.ar    1  UNL1        0.1389
     29 C         140.1055  143.6846  156.5552 C.ar    1  UNL1        0.0400
     30 C         141.1628  143.2757  157.5375 C.ar    1  UNL1        0.0406
     31 C         141.7555  144.2921  158.4679 C.ar    1  UNL1        0.1455
     32 C         141.2909  145.7174  158.4160 C.ar    1  UNL1        0.0406
     33 C         140.2336  146.1263  157.4337 C.ar    1  UNL1        0.0400
     34 C         137.4769  144.5685  155.1714 C.3     1  UNL1        0.2525
     35 O         138.5836  145.5188  155.5211 O.3     1  UNL1       -0.4714
@<TRIPOS>BOND
     1    34    35    1
     2    35    28    1
     3    28    29   ar
     4    29    30   ar
     5    30    31   ar
     6    31    27    1
     7    27    21    1
     8    21    22   ar
     9    22    23   ar
    10    23    24   ar
    11    24     1    1
    12     1     2    2
    13     1     3    2
    14     1     4    1
    15     4    15    1
    16    15    16    2
    17    15    17   am
    18    17    18    1
    19     4     5    1
    20     5     6    1
    21     6     7    1
    22     7     8    1
    23     8     9    1
    24     9    10    1
    25    10    11    1
    26    11    12    1
    27     7    13    1
    28    24    25   ar
    29    25    26   ar
    30    31    32   ar
    31    32    33   ar
    32    33    28   ar
    33    26    21   ar
    34    13     4    1
    35    12     7    1
    36    17    19    1
    37    18    20    1
    38    10    14    1
