@<TRIPOS>MOLECULE
*****
 35 38 0 0 0
SMALL
GASTEIGER

@<TRIPOS>ATOM
      1 C         143.3772  139.3525  159.4334 C.3     1  UNL1        0.0744
      2 C         144.0877  138.8118  160.6388 C.3     1  UNL1        0.0369
      3 C         143.3094  138.1320  161.7259 C.3     1  UNL1        0.0741
      4 N         141.8206  137.9927  161.6078 N.3     1  UNL1       -0.2688
      5 C         141.1100  138.5333  160.4025 C.3     1  UNL1        0.0741
      6 C         141.8883  139.2133  159.3153 C.3     1  UNL1        0.0369
      7 O         143.4478  142.3481  159.2879 O.2     1  UNL1       -0.2711
      8 C         144.1908  141.5302  158.2735 C.2     1  UNL1        0.2670
      9 N         144.1555  140.0324  158.3462 N.am    1  UNL1       -0.3028
     10 H         144.6431  139.4956  157.6805 H       1  UNL1        0.1495
     11 C         144.9691  142.2101  157.1863 C.3     1  UNL1        0.2893
     12 O         146.4676  142.2439  157.2453 O.3     1  UNL1       -0.4656
     13 C         147.2641  142.4187  155.9863 C.ar    1  UNL1        0.1401
     14 C         146.6634  143.1328  154.8119 C.ar    1  UNL1        0.0370
     15 C         147.4599  143.3075  153.5529 C.ar    1  UNL1        0.0040
     16 C         148.8570  142.7683  153.4684 C.ar    1  UNL1        0.0116
     17 C         149.4577  142.0542  154.6428 C.ar    1  UNL1        0.0607
     18 CL        150.8549  141.5150  154.5583 Cl      1  UNL1       -0.0821
     19 C         148.6612  141.8795  155.9018 C.ar    1  UNL1        0.0483
     20 C         141.0423  137.3128  162.6950 C.3     1  UNL1        0.1007
     21 C         140.6826  138.0644  163.9423 C.ar    1  UNL1        0.0129
     22 C         139.3312  138.0988  164.5922 C.ar    1  UNL1        0.0176
     23 C         139.4246  138.9692  165.8103 C.ar    1  UNL1        0.0799
     24 N         140.8338  139.4728  165.9132 N.ar    1  UNL1       -0.3038
     25 C         141.6113  138.9136  164.7587 C.ar    1  UNL1        0.0772
     26 C         141.3712  140.3768  166.9827 C.ar    1  UNL1        0.0640
     27 C         142.6296  141.1571  166.7428 C.ar    1  UNL1        0.0175
     28 C         143.1669  142.0611  167.8124 C.ar    1  UNL1        0.0053
     29 C         142.4458  142.1849  169.1218 C.ar    1  UNL1        0.0715
     30 C         141.1874  141.4046  169.3618 C.ar    1  UNL1        0.0053
     31 C         140.6501  140.5006  168.2922 C.ar    1  UNL1        0.0175
     32 C         142.9832  143.0889  170.1914 C.3     1  UNL1        0.4186
     33 F         143.5205  143.9930  171.2610 F       1  UNL1       -0.1659
     34 F         144.3306  142.4430  170.0604 F       1  UNL1       -0.1659
     35 F         141.6357  143.7349  170.3224 F       1  UNL1       -0.1659
@<TRIPOS>BOND
     1     7     8    2
     2     8    11    1
     3    11    12    1
     4    12    13    1
     5    13    14   ar
     6    14    15   ar
     7    15    16   ar
     8    16    17   ar
     9    17    18    1
    10    17    19   ar
    11     8     9   am
    12     9     1    1
    13     1     2    1
    14     2     3    1
    15     3     4    1
    16     4    20    1
    17    20    21    1
    18    21    22   ar
    19    22    23   ar
    20    23    24   ar
    21    24    26    1
    22    26    27   ar
    23    27    28   ar
    24    28    29   ar
    25    29    32    1
    26    32    33    1
    27    32    34    1
    28    32    35    1
    29    29    30   ar
    30    30    31   ar
    31    24    25   ar
    32     4     5    1
    33     5     6    1
    34    19    13   ar
    35     6     1    1
    36    25    21   ar
    37    31    26   ar
    38     9    10    1
@<TRIPOS>MOLECULE
*****
 35 38 0 0 0
SMALL
GASTEIGER

@<TRIPOS>ATOM
      1 C         142.2057  139.0008  158.5634 C.3     1  UNL1        0.0744
      2 C         143.0054  138.6594  159.7857 C.3     1  UNL1        0.0369
      3 C         143.7050  139.7433  160.5511 C.3     1  UNL1        0.0741
      4 N         143.6048  141.1685  160.0942 N.3     1  UNL1       -0.2688
      5 C         142.8051  141.5099  158.8720 C.3     1  UNL1        0.0741
      6 C         142.1055  140.4260  158.1065 C.3     1  UNL1        0.0369
      7 O         143.6855  137.4542  156.4615 O.2     1  UNL1       -0.2711
      8 C         142.2460  137.1436  156.7471 C.2     1  UNL1        0.2670
      9 N         141.5061  137.9169  157.7980 N.am    1  UNL1       -0.3028
     10 H         140.5614  137.7131  157.9855 H       1  UNL1        0.1495
     11 C         141.5465  136.0597  155.9816 C.3     1  UNL1        0.2893
     12 O         142.3423  135.0827  155.1680 O.3     1  UNL1       -0.4656
     13 C         142.7581  133.7715  155.7665 C.ar    1  UNL1        0.1401
     14 C         141.9847  132.5252  155.4530 C.ar    1  UNL1        0.0370
     15 C         142.4005  131.2141  156.0514 C.ar    1  UNL1        0.0040
     16 C         143.5897  131.1494  156.9633 C.ar    1  UNL1        0.0116
     17 C         144.3632  132.3958  157.2768 C.ar    1  UNL1        0.0607
     18 CL        145.5524  132.3311  158.1887 Cl      1  UNL1       -0.0821
     19 C         143.9474  133.7068  156.6784 C.ar    1  UNL1        0.0483
     20 C         144.3044  142.2523  160.8596 C.3     1  UNL1        0.1007
     21 C         144.3168  142.2233  162.3593 C.ar    1  UNL1        0.0129
     22 C         145.5190  141.9952  163.2268 C.ar    1  UNL1        0.0176
     23 C         145.0744  142.0482  164.6584 C.ar    1  UNL1        0.0799
     24 N         143.5973  142.3090  164.6757 N.ar    1  UNL1       -0.3038
     25 C         143.1291  142.4172  163.2548 C.ar    1  UNL1        0.0772
     26 C         142.7392  142.4387  165.8991 C.ar    1  UNL1        0.0640
     27 C         141.2786  142.7513  165.7610 C.ar    1  UNL1        0.0175
     28 C         140.4205  142.8810  166.9844 C.ar    1  UNL1        0.0053
     29 C         141.0229  142.6983  168.3459 C.ar    1  UNL1        0.0715
     30 C         142.4834  142.3857  168.4840 C.ar    1  UNL1        0.0053
     31 C         143.3416  142.2560  167.2606 C.ar    1  UNL1        0.0175
     32 C         140.1647  142.8280  169.5693 C.3     1  UNL1        0.4186
     33 F         139.3066  142.9578  170.7927 F       1  UNL1       -0.1659
     34 F         139.5825  141.4712  169.3048 F       1  UNL1       -0.1659
     35 F         140.7470  144.1849  169.8338 F       1  UNL1       -0.1659
@<TRIPOS>BOND
     1     7     8    2
     2     8    11    1
     3    11    12    1
     4    12    13    1
     5    13    14   ar
     6    14    15   ar
     7    15    16   ar
     8    16    17   ar
     9    17    18    1
    10    17    19   ar
    11     8     9   am
    12     9     1    1
    13     1     2    1
    14     2     3    1
    15     3     4    1
    16     4    20    1
    17    20    21    1
    18    21    22   ar
    19    22    23   ar
    20    23    24   ar
    21    24    26    1
    22    26    27   ar
    23    27    28   ar
    24    28    29   ar
    25    29    32    1
    26    32    33    1
    27    32    34    1
    28    32    35    1
    29    29    30   ar
    30    30    31   ar
    31    24    25   ar
    32     4     5    1
    33     5     6    1
    34    19    13   ar
    35     6     1    1
    36    25    21   ar
    37    31    26   ar
    38     9    10    1
@<TRIPOS>MOLECULE
*****
 35 38 0 0 0
SMALL
GASTEIGER

@<TRIPOS>ATOM
      1 C         138.7946  139.9322  159.3071 C.3     1  UNL1        0.0744
      2 C         138.1680  139.2809  160.5043 C.3     1  UNL1        0.0369
      3 C         137.6773  140.1223  161.6450 C.3     1  UNL1        0.0741
      4 N         137.8132  141.6151  161.5885 N.3     1  UNL1       -0.2688
      5 C         138.4397  142.2664  160.3914 C.3     1  UNL1        0.0741
      6 C         138.9305  141.4250  159.2506 C.3     1  UNL1        0.0369
      7 O         141.4907  138.6255  159.4584 O.2     1  UNL1       -0.2711
      8 C         140.6333  138.4374  158.2421 C.2     1  UNL1        0.2670
      9 N         139.2852  139.0908  158.1664 N.am    1  UNL1       -0.3028
     10 H         138.7225  138.9673  157.3681 H       1  UNL1        0.1495
     11 C         141.1240  137.5959  157.1014 C.3     1  UNL1        0.2893
     12 O         142.3143  136.7021  157.2865 O.3     1  UNL1       -0.4656
     13 C         142.4364  135.4400  156.4850 C.ar    1  UNL1        0.1401
     14 C         141.4205  135.1212  155.4286 C.ar    1  UNL1        0.0370
     15 C         141.5426  133.8592  154.6271 C.ar    1  UNL1        0.0040
     16 C         142.6807  132.9160  154.8822 C.ar    1  UNL1        0.0116
     17 C         143.6967  133.2348  155.9386 C.ar    1  UNL1        0.0607
     18 CL        144.8348  132.2916  156.1937 Cl      1  UNL1       -0.0821
     19 C         143.5745  134.4968  156.7401 C.ar    1  UNL1        0.0483
     20 C         137.3225  142.4565  162.7292 C.3     1  UNL1        0.1007
     21 C         138.2277  142.7492  163.8889 C.ar    1  UNL1        0.0129
     22 C         138.6591  144.1101  164.3492 C.ar    1  UNL1        0.0176
     23 C         139.5584  143.9343  165.5368 C.ar    1  UNL1        0.0799
     24 N         139.6829  142.4647  165.8105 N.ar    1  UNL1       -0.3038
     25 C         138.8605  141.7323  164.7920 C.ar    1  UNL1        0.0772
     26 C         140.4884  141.8376  166.9095 C.ar    1  UNL1        0.0640
     27 C         140.9803  140.4276  166.7682 C.ar    1  UNL1        0.0175
     28 C         141.7857  139.8006  167.8672 C.ar    1  UNL1        0.0053
     29 C         142.0993  140.5835  169.1077 C.ar    1  UNL1        0.0715
     30 C         141.6075  141.9935  169.2491 C.ar    1  UNL1        0.0053
     31 C         140.8020  142.6206  168.1500 C.ar    1  UNL1        0.0175
     32 C         142.9048  139.9565  170.2068 C.3     1  UNL1        0.4186
     33 F         143.7103  139.3294  171.3059 F       1  UNL1       -0.1659
     34 F         142.0105  138.7526  170.1753 F       1  UNL1       -0.1659
     35 F         143.7991  141.1603  170.2382 F       1  UNL1       -0.1659
@<TRIPOS>BOND
     1     7     8    2
     2     8    11    1
     3    11    12    1
     4    12    13    1
     5    13    14   ar
     6    14    15   ar
     7    15    16   ar
     8    16    17   ar
     9    17    18    1
    10    17    19   ar
    11     8     9   am
    12     9     1    1
    13     1     2    1
    14     2     3    1
    15     3     4    1
    16     4    20    1
    17    20    21    1
    18    21    22   ar
    19    22    23   ar
    20    23    24   ar
    21    24    26    1
    22    26    27   ar
    23    27    28   ar
    24    28    29   ar
    25    29    32    1
    26    32    33    1
    27    32    34    1
    28    32    35    1
    29    29    30   ar
    30    30    31   ar
    31    24    25   ar
    32     4     5    1
    33     5     6    1
    34    19    13   ar
    35     6     1    1
    36    25    21   ar
    37    31    26   ar
    38     9    10    1
@<TRIPOS>MOLECULE
*****
 35 38 0 0 0
SMALL
GASTEIGER

@<TRIPOS>ATOM
      1 C         142.7163  138.3536  158.3122 C.3     1  UNL1        0.0744
      2 C         142.9567  137.7339  159.6570 C.3     1  UNL1        0.0369
      3 C         143.5485  138.5532  160.7653 C.3     1  UNL1        0.0741
      4 N         143.8999  139.9922  160.5290 N.3     1  UNL1       -0.2688
      5 C         143.6596  140.6119  159.1843 C.3     1  UNL1        0.0741
      6 C         143.0677  139.7926  158.0759 C.3     1  UNL1        0.0369
      7 O         144.4209  137.5191  155.9890 O.2     1  UNL1       -0.2711
      8 C         142.9768  137.1171  156.0422 C.2     1  UNL1        0.2670
      9 N         142.1245  137.5343  157.2039 N.am    1  UNL1       -0.3028
     10 H         141.1766  137.2704  157.2388 H       1  UNL1        0.1495
     11 C         142.3850  136.2977  154.9338 C.3     1  UNL1        0.2893
     12 O         141.3837  135.2254  155.2461 O.3     1  UNL1       -0.4656
     13 C         141.8503  133.8563  155.6436 C.ar    1  UNL1        0.1401
     14 C         142.9460  133.7021  156.6563 C.ar    1  UNL1        0.0370
     15 C         143.4125  132.3330  157.0538 C.ar    1  UNL1        0.0040
     16 C         142.7834  131.1183  156.4386 C.ar    1  UNL1        0.0116
     17 C         141.6877  131.2725  155.4259 C.ar    1  UNL1        0.0607
     18 CL        141.0585  130.0577  154.8107 Cl      1  UNL1       -0.0821
     19 C         141.2211  132.6415  155.0284 C.ar    1  UNL1        0.0483
     20 C         144.4917  140.8115  161.6373 C.3     1  UNL1        0.1007
     21 C         144.1099  140.5342  163.0612 C.ar    1  UNL1        0.0129
     22 C         144.5318  139.3445  163.8715 C.ar    1  UNL1        0.0176
     23 C         143.9218  139.4729  165.2358 C.ar    1  UNL1        0.0799
     24 N         143.1229  140.7421  165.2688 N.ar    1  UNL1       -0.3038
     25 C         143.2392  141.3980  163.9248 C.ar    1  UNL1        0.0772
     26 C         142.3445  141.2638  166.4400 C.ar    1  UNL1        0.0640
     27 C         140.8588  141.0666  166.5009 C.ar    1  UNL1        0.0175
     28 C         140.0803  141.5883  167.6721 C.ar    1  UNL1        0.0053
     29 C         140.7876  142.3071  168.7826 C.ar    1  UNL1        0.0715
     30 C         142.2734  142.5043  168.7217 C.ar    1  UNL1        0.0053
     31 C         143.0518  141.9826  167.5505 C.ar    1  UNL1        0.0175
     32 C         140.0092  142.8288  169.9538 C.3     1  UNL1        0.4186
     33 F         139.2308  143.3505  171.1251 F       1  UNL1       -0.1659
     34 F         139.4857  141.4487  170.2206 F       1  UNL1       -0.1659
     35 F         140.5327  144.2089  169.6870 F       1  UNL1       -0.1659
@<TRIPOS>BOND
     1     7     8    2
     2     8    11    1
     3    11    12    1
     4    12    13    1
     5    13    14   ar
     6    14    15   ar
     7    15    16   ar
     8    16    17   ar
     9    17    18    1
    10    17    19   ar
    11     8     9   am
    12     9     1    1
    13     1     2    1
    14     2     3    1
    15     3     4    1
    16     4    20    1
    17    20    21    1
    18    21    22   ar
    19    22    23   ar
    20    23    24   ar
    21    24    26    1
    22    26    27   ar
    23    27    28   ar
    24    28    29   ar
    25    29    32    1
    26    32    33    1
    27    32    34    1
    28    32    35    1
    29    29    30   ar
    30    30    31   ar
    31    24    25   ar
    32     4     5    1
    33     5     6    1
    34    19    13   ar
    35     6     1    1
    36    25    21   ar
    37    31    26   ar
    38     9    10    1
@<TRIPOS>MOLECULE
*****
 35 38 0 0 0
SMALL
GASTEIGER

@<TRIPOS>ATOM
      1 C         140.3863  144.7430  159.5532 C.3     1  UNL1        0.0744
      2 C         140.1143  145.7863  160.5961 C.3     1  UNL1        0.0369
      3 C         139.2744  145.4498  161.7924 C.3     1  UNL1        0.0741
      4 N         138.7065  144.0699  161.9460 N.3     1  UNL1       -0.2688
      5 C         138.9786  143.0266  160.9032 C.3     1  UNL1        0.0741
      6 C         139.8185  143.3631  159.7067 C.3     1  UNL1        0.0369
      7 O         139.2358  144.4913  156.7941 O.2     1  UNL1       -0.2711
      8 C         140.6510  144.9537  156.9773 C.2     1  UNL1        0.2670
      9 N         141.2262  145.0795  158.3568 N.am    1  UNL1       -0.3028
     10 H         142.1550  145.3830  158.4771 H       1  UNL1        0.1495
     11 C         141.4909  145.2902  155.7808 C.3     1  UNL1        0.2893
     12 O         140.8345  145.6601  154.4838 O.3     1  UNL1       -0.4656
     13 C         140.4525  147.0858  154.2164 C.ar    1  UNL1        0.1401
     14 C         140.9534  147.7778  152.9834 C.ar    1  UNL1        0.0370
     15 C         140.5713  149.2035  152.7160 C.ar    1  UNL1        0.0040
     16 C         139.6884  149.9371  153.6815 C.ar    1  UNL1        0.0116
     17 C         139.1875  149.2451  154.9145 C.ar    1  UNL1        0.0607
     18 CL        138.3045  149.9787  155.8800 Cl      1  UNL1       -0.0821
     19 C         139.5695  147.8194  155.1819 C.ar    1  UNL1        0.0483
     20 C         137.8667  143.7334  163.1423 C.3     1  UNL1        0.1007
     21 C         138.2516  142.5876  164.0306 C.ar    1  UNL1        0.0129
     22 C         137.6661  141.2072  163.9927 C.ar    1  UNL1        0.0176
     23 C         138.3423  140.3876  165.0515 C.ar    1  UNL1        0.0799
     24 N         139.3458  141.2615  165.7438 N.ar    1  UNL1       -0.3038
     25 C         139.2898  142.6212  165.1128 C.ar    1  UNL1        0.0772
     26 C         140.2471  140.8483  166.8693 C.ar    1  UNL1        0.0640
     27 C         141.7302  140.7784  166.6556 C.ar    1  UNL1        0.0175
     28 C         142.6314  140.3652  167.7812 C.ar    1  UNL1        0.0053
     29 C         142.0497  140.0218  169.1204 C.ar    1  UNL1        0.0715
     30 C         140.5666  140.0916  169.3342 C.ar    1  UNL1        0.0053
     31 C         139.6653  140.5049  168.2086 C.ar    1  UNL1        0.0175
     32 C         142.9510  139.6086  170.2460 C.3     1  UNL1        0.4186
     33 F         143.8522  139.1953  171.3715 F       1  UNL1       -0.1659
     34 F         143.5097  140.9992  170.3091 F       1  UNL1       -0.1659
     35 F         142.3922  138.2180  170.1829 F       1  UNL1       -0.1659
@<TRIPOS>BOND
     1     7     8    2
     2     8    11    1
     3    11    12    1
     4    12    13    1
     5    13    14   ar
     6    14    15   ar
     7    15    16   ar
     8    16    17   ar
     9    17    18    1
    10    17    19   ar
    11     8     9   am
    12     9     1    1
    13     1     2    1
    14     2     3    1
    15     3     4    1
    16     4    20    1
    17    20    21    1
    18    21    22   ar
    19    22    23   ar
    20    23    24   ar
    21    24    26    1
    22    26    27   ar
    23    27    28   ar
    24    28    29   ar
    25    29    32    1
    26    32    33    1
    27    32    34    1
    28    32    35    1
    29    29    30   ar
    30    30    31   ar
    31    24    25   ar
    32     4     5    1
    33     5     6    1
    34    19    13   ar
    35     6     1    1
    36    25    21   ar
    37    31    26   ar
    38     9    10    1
@<TRIPOS>MOLECULE
*****
 35 38 0 0 0
SMALL
GASTEIGER

@<TRIPOS>ATOM
      1 C         143.5078  139.5644  158.7319 C.3     1  UNL1        0.0744
      2 C         143.7220  139.0891  160.1385 C.3     1  UNL1        0.0369
      3 C         144.1186  140.0639  161.2073 C.3     1  UNL1        0.0741
      4 N         144.3008  141.5140  160.8697 N.3     1  UNL1       -0.2688
      5 C         144.0866  141.9893  159.4632 C.3     1  UNL1        0.0741
      6 C         143.6900  141.0145  158.3943 C.3     1  UNL1        0.0369
      7 O         140.7335  138.4233  158.6969 O.2     1  UNL1       -0.2711
      8 C         141.7241  138.0190  157.6456 C.2     1  UNL1        0.2670
      9 N         143.1112  138.5895  157.6631 N.am    1  UNL1       -0.3028
     10 H         143.7614  138.3242  156.9731 H       1  UNL1        0.1495
     11 C         141.3275  137.0441  156.5767 C.3     1  UNL1        0.2893
     12 O         142.3817  136.3045  155.8076 O.3     1  UNL1       -0.4656
     13 C         142.5976  134.8399  156.0493 C.ar    1  UNL1        0.1401
     14 C         141.6638  133.8342  155.4438 C.ar    1  UNL1        0.0370
     15 C         141.8797  132.3696  155.6855 C.ar    1  UNL1        0.0040
     16 C         143.0294  131.9108  156.5327 C.ar    1  UNL1        0.0116
     17 C         143.9632  132.9164  157.1382 C.ar    1  UNL1        0.0607
     18 CL        145.1129  132.4576  157.9853 Cl      1  UNL1       -0.0821
     19 C         143.7473  134.3810  156.8965 C.ar    1  UNL1        0.0483
     20 C         144.6973  142.4889  161.9385 C.3     1  UNL1        0.1007
     21 C         143.7798  142.7459  163.0971 C.ar    1  UNL1        0.0129
     22 C         143.0016  144.0043  163.3431 C.ar    1  UNL1        0.0176
     23 C         142.2203  143.8257  164.6111 C.ar    1  UNL1        0.0799
     24 N         142.5157  142.4568  165.1487 N.ar    1  UNL1       -0.3038
     25 C         143.4796  141.7895  164.2130 C.ar    1  UNL1        0.0772
     26 C         141.9471  141.8601  166.4019 C.ar    1  UNL1        0.0640
     27 C         142.4934  140.5676  166.9320 C.ar    1  UNL1        0.0175
     28 C         141.9248  139.9709  168.1852 C.ar    1  UNL1        0.0053
     29 C         140.8099  140.6668  168.9084 C.ar    1  UNL1        0.0715
     30 C         140.2637  141.9593  168.3784 C.ar    1  UNL1        0.0053
     31 C         140.8323  142.5560  167.1251 C.ar    1  UNL1        0.0175
     32 C         140.2414  140.0701  170.1617 C.3     1  UNL1        0.4186
     33 F         139.6728  139.4734  171.4149 F       1  UNL1       -0.1659
     34 F         139.1331  141.0807  170.1400 F       1  UNL1       -0.1659
     35 F         141.3496  139.0595  170.1833 F       1  UNL1       -0.1659
@<TRIPOS>BOND
     1     7     8    2
     2     8    11    1
     3    11    12    1
     4    12    13    1
     5    13    14   ar
     6    14    15   ar
     7    15    16   ar
     8    16    17   ar
     9    17    18    1
    10    17    19   ar
    11     8     9   am
    12     9     1    1
    13     1     2    1
    14     2     3    1
    15     3     4    1
    16     4    20    1
    17    20    21    1
    18    21    22   ar
    19    22    23   ar
    20    23    24   ar
    21    24    26    1
    22    26    27   ar
    23    27    28   ar
    24    28    29   ar
    25    29    32    1
    26    32    33    1
    27    32    34    1
    28    32    35    1
    29    29    30   ar
    30    30    31   ar
    31    24    25   ar
    32     4     5    1
    33     5     6    1
    34    19    13   ar
    35     6     1    1
    36    25    21   ar
    37    31    26   ar
    38     9    10    1
@<TRIPOS>MOLECULE
*****
 35 38 0 0 0
SMALL
GASTEIGER

@<TRIPOS>ATOM
      1 C         142.4493  138.6193  159.7057 C.3     1  UNL1        0.0744
      2 C         143.1382  137.9842  160.8771 C.3     1  UNL1        0.0369
      3 C         142.3375  137.5246  162.0593 C.3     1  UNL1        0.0741
      4 N         140.8478  137.7001  162.0702 N.3     1  UNL1       -0.2688
      5 C         140.1589  138.3351  160.8989 C.3     1  UNL1        0.0741
      6 C         140.9596  138.7947  159.7166 C.3     1  UNL1        0.0369
      7 O         141.9673  137.4063  157.0046 O.2     1  UNL1       -0.2711
      8 C         143.0090  138.4724  157.1730 C.2     1  UNL1        0.2670
      9 N         143.2500  139.0789  158.5236 N.am    1  UNL1       -0.3028
     10 H         143.9337  139.7786  158.6341 H       1  UNL1        0.1495
     11 C         143.8098  138.9319  155.9907 C.3     1  UNL1        0.2893
     12 O         143.8170  140.3822  155.6078 O.3     1  UNL1       -0.4656
     13 C         145.1173  141.1213  155.4933 C.ar    1  UNL1        0.1401
     14 C         145.8043  141.2288  154.1643 C.ar    1  UNL1        0.0370
     15 C         147.1045  141.9679  154.0498 C.ar    1  UNL1        0.0040
     16 C         147.7177  142.5994  155.2644 C.ar    1  UNL1        0.0116
     17 C         147.0307  142.4918  156.5935 C.ar    1  UNL1        0.0607
     18 CL        147.6439  143.1233  157.8080 Cl      1  UNL1       -0.0821
     19 C         145.7304  141.7527  156.7079 C.ar    1  UNL1        0.0483
     20 C         140.0471  137.2405  163.2523 C.3     1  UNL1        0.1007
     21 C         139.8397  138.1585  164.4204 C.ar    1  UNL1        0.0129
     22 C         138.5189  138.5276  165.0280 C.ar    1  UNL1        0.0176
     23 C         138.7795  139.4658  166.1690 C.ar    1  UNL1        0.0799
     24 N         140.2615  139.6766  166.2665 N.ar    1  UNL1       -0.3038
     25 C         140.9166  138.8687  165.1858 C.ar    1  UNL1        0.0772
     26 C         140.9647  140.5432  167.2688 C.ar    1  UNL1        0.0640
     27 C         142.2156  140.0539  167.9365 C.ar    1  UNL1        0.0175
     28 C         142.9188  140.9205  168.9387 C.ar    1  UNL1        0.0053
     29 C         142.3711  142.2763  169.2732 C.ar    1  UNL1        0.0715
     30 C         141.1202  142.7655  168.6055 C.ar    1  UNL1        0.0053
     31 C         140.4170  141.8990  167.6033 C.ar    1  UNL1        0.0175
     32 C         143.0744  143.1429  170.2755 C.3     1  UNL1        0.4186
     33 F         143.7776  144.0094  171.2777 F       1  UNL1       -0.1659
     34 F         141.8518  144.0046  170.3882 F       1  UNL1       -0.1659
     35 F         144.2969  142.2812  170.1627 F       1  UNL1       -0.1659
@<TRIPOS>BOND
     1     7     8    2
     2     8    11    1
     3    11    12    1
     4    12    13    1
     5    13    14   ar
     6    14    15   ar
     7    15    16   ar
     8    16    17   ar
     9    17    18    1
    10    17    19   ar
    11     8     9   am
    12     9     1    1
    13     1     2    1
    14     2     3    1
    15     3     4    1
    16     4    20    1
    17    20    21    1
    18    21    22   ar
    19    22    23   ar
    20    23    24   ar
    21    24    26    1
    22    26    27   ar
    23    27    28   ar
    24    28    29   ar
    25    29    32    1
    26    32    33    1
    27    32    34    1
    28    32    35    1
    29    29    30   ar
    30    30    31   ar
    31    24    25   ar
    32     4     5    1
    33     5     6    1
    34    19    13   ar
    35     6     1    1
    36    25    21   ar
    37    31    26   ar
    38     9    10    1
@<TRIPOS>MOLECULE
*****
 35 38 0 0 0
SMALL
GASTEIGER

@<TRIPOS>ATOM
      1 C         141.7012  143.5879  158.4540 C.3     1  UNL1        0.0744
      2 C         141.5554  144.0604  159.8702 C.3     1  UNL1        0.0369
      3 C         142.5943  143.7021  160.8911 C.3     1  UNL1        0.0741
      4 N         143.7789  142.8711  160.4959 N.3     1  UNL1       -0.2688
      5 C         143.9247  142.3986  159.0798 C.3     1  UNL1        0.0741
      6 C         142.8858  142.7570  158.0588 C.3     1  UNL1        0.0369
      7 O         141.8276  146.2368  157.0515 O.2     1  UNL1       -0.2711
      8 C         140.7255  145.2708  156.7318 C.2     1  UNL1        0.2670
      9 N         140.6623  143.9463  157.4331 N.am    1  UNL1       -0.3028
     10 H         139.9390  143.3123  157.2233 H       1  UNL1        0.1495
     11 C         139.6866  145.6292  155.7109 C.3     1  UNL1        0.2893
     12 O         138.8527  146.8629  155.8907 O.3     1  UNL1       -0.4656
     13 C         139.1841  148.1103  155.1264 C.ar    1  UNL1        0.1401
     14 C         140.0392  148.0314  153.8965 C.ar    1  UNL1        0.0370
     15 C         140.3706  149.2788  153.1323 C.ar    1  UNL1        0.0040
     16 C         139.8469  150.6051  153.5978 C.ar    1  UNL1        0.0116
     17 C         138.9918  150.6840  154.8276 C.ar    1  UNL1        0.0607
     18 CL        138.4680  152.0102  155.2931 Cl      1  UNL1       -0.0821
     19 C         138.6604  149.4366  155.5919 C.ar    1  UNL1        0.0483
     20 C         144.8178  142.5127  161.5168 C.3     1  UNL1        0.1007
     21 C         144.4006  141.9966  162.8620 C.ar    1  UNL1        0.0129
     22 C         144.8038  140.6844  163.4668 C.ar    1  UNL1        0.0176
     23 C         144.1595  140.5789  164.8172 C.ar    1  UNL1        0.0799
     24 N         143.3580  141.8259  165.0471 N.ar    1  UNL1       -0.3038
     25 C         143.5071  142.7020  163.8388 C.ar    1  UNL1        0.0772
     26 C         142.5495  142.1413  166.2705 C.ar    1  UNL1        0.0640
     27 C         143.2111  142.1850  167.6160 C.ar    1  UNL1        0.0175
     28 C         142.4026  142.5004  168.8394 C.ar    1  UNL1        0.0053
     29 C         140.9325  142.7721  168.7174 C.ar    1  UNL1        0.0715
     30 C         140.2708  142.7284  167.3719 C.ar    1  UNL1        0.0053
     31 C         141.0793  142.4130  166.1485 C.ar    1  UNL1        0.0175
     32 C         140.1240  143.0875  169.9408 C.3     1  UNL1        0.4186
     33 F         139.3154  143.4029  171.1642 F       1  UNL1       -0.1659
     34 F         139.4324  141.7614  169.8256 F       1  UNL1       -0.1659
     35 F         140.8155  144.4135  170.0560 F       1  UNL1       -0.1659
@<TRIPOS>BOND
     1     7     8    2
     2     8    11    1
     3    11    12    1
     4    12    13    1
     5    13    14   ar
     6    14    15   ar
     7    15    16   ar
     8    16    17   ar
     9    17    18    1
    10    17    19   ar
    11     8     9   am
    12     9     1    1
    13     1     2    1
    14     2     3    1
    15     3     4    1
    16     4    20    1
    17    20    21    1
    18    21    22   ar
    19    22    23   ar
    20    23    24   ar
    21    24    26    1
    22    26    27   ar
    23    27    28   ar
    24    28    29   ar
    25    29    32    1
    26    32    33    1
    27    32    34    1
    28    32    35    1
    29    29    30   ar
    30    30    31   ar
    31    24    25   ar
    32     4     5    1
    33     5     6    1
    34    19    13   ar
    35     6     1    1
    36    25    21   ar
    37    31    26   ar
    38     9    10    1
@<TRIPOS>MOLECULE
*****
 35 38 0 0 0
SMALL
GASTEIGER

@<TRIPOS>ATOM
      1 C         139.8469  139.2191  158.3081 C.3     1  UNL1        0.0744
      2 C         140.3728  138.4132  159.4589 C.3     1  UNL1        0.0369
      3 C         139.7064  138.4975  160.8000 C.3     1  UNL1        0.0741
      4 N         138.5141  139.3875  160.9905 N.3     1  UNL1       -0.2688
      5 C         137.9882  140.1933  159.8399 C.3     1  UNL1        0.0741
      6 C         138.6546  140.1091  158.4986 C.3     1  UNL1        0.0369
      7 O         138.9708  137.1451  156.3256 O.2     1  UNL1       -0.2711
      8 C         140.0753  138.0978  155.9757 C.2     1  UNL1        0.2670
      9 N         140.5133  139.1348  156.9669 N.am    1  UNL1       -0.3028
     10 H         141.2382  139.7601  156.7373 H       1  UNL1        0.1495
     11 C         140.7417  138.0135  154.6344 C.3     1  UNL1        0.2893
     12 O         142.0572  137.3068  154.4937 O.3     1  UNL1       -0.4656
     13 C         142.3013  136.0227  155.2298 C.ar    1  UNL1        0.1401
     14 C         143.2459  135.9939  156.3945 C.ar    1  UNL1        0.0370
     15 C         143.4900  134.7099  157.1305 C.ar    1  UNL1        0.0040
     16 C         142.7895  133.4548  156.7018 C.ar    1  UNL1        0.0116
     17 C         141.8448  133.4836  155.5370 C.ar    1  UNL1        0.0607
     18 CL        141.1443  132.2285  155.1082 Cl      1  UNL1       -0.0821
     19 C         141.6007  134.7676  154.8010 C.ar    1  UNL1        0.0483
     20 C         137.8477  139.4718  162.3317 C.3     1  UNL1        0.1007
     21 C         138.6609  139.3259  163.5837 C.ar    1  UNL1        0.0129
     22 C         139.0660  138.0324  164.2262 C.ar    1  UNL1        0.0176
     23 C         139.8672  138.3550  165.4526 C.ar    1  UNL1        0.0799
     24 N         139.9572  139.8479  165.5682 N.ar    1  UNL1       -0.3038
     25 C         139.2116  140.4479  164.4131 C.ar    1  UNL1        0.0772
     26 C         140.6679  140.6073  166.6489 C.ar    1  UNL1        0.0640
     27 C         140.0525  140.7250  168.0118 C.ar    1  UNL1        0.0175
     28 C         140.7632  141.4845  169.0926 C.ar    1  UNL1        0.0053
     29 C         142.0893  142.1262  168.8105 C.ar    1  UNL1        0.0715
     30 C         142.7047  142.0086  167.4476 C.ar    1  UNL1        0.0053
     31 C         141.9940  141.2491  166.3668 C.ar    1  UNL1        0.0175
     32 C         142.8000  142.8857  169.8912 C.3     1  UNL1        0.4186
     33 F         143.5107  143.6451  170.9720 F       1  UNL1       -0.1659
     34 F         143.9717  141.9566  169.7736 F       1  UNL1       -0.1659
     35 F         141.6283  143.8148  170.0089 F       1  UNL1       -0.1659
@<TRIPOS>BOND
     1     7     8    2
     2     8    11    1
     3    11    12    1
     4    12    13    1
     5    13    14   ar
     6    14    15   ar
     7    15    16   ar
     8    16    17   ar
     9    17    18    1
    10    17    19   ar
    11     8     9   am
    12     9     1    1
    13     1     2    1
    14     2     3    1
    15     3     4    1
    16     4    20    1
    17    20    21    1
    18    21    22   ar
    19    22    23   ar
    20    23    24   ar
    21    24    26    1
    22    26    27   ar
    23    27    28   ar
    24    28    29   ar
    25    29    32    1
    26    32    33    1
    27    32    34    1
    28    32    35    1
    29    29    30   ar
    30    30    31   ar
    31    24    25   ar
    32     4     5    1
    33     5     6    1
    34    19    13   ar
    35     6     1    1
    36    25    21   ar
    37    31    26   ar
    38     9    10    1
