@<TRIPOS>MOLECULE
*****
 31 35 0 0 0
SMALL
GASTEIGER

@<TRIPOS>ATOM
      1 C         143.3546  142.5114  167.0386 C.3     1  UNL1        0.0285
      2 C         142.5509  141.6109  166.1480 C.3     1  UNL1        0.1321
      3 C         142.9515  141.4213  164.7150 C.3     1  UNL1        0.2279
      4 O         142.1477  140.5208  163.8244 O.3     1  UNL1       -0.4707
      5 C         140.9434  139.8099  164.3669 C.ar    1  UNL1        0.1697
      6 C         140.1396  138.9095  163.4763 C.ar    1  UNL1        0.1115
      7 C         138.9353  138.1986  164.0187 C.ar    1  UNL1        0.1564
      8 F         138.1316  137.2981  163.1281 F       1  UNL1       -0.2028
      9 C         138.5347  138.3882  165.4518 C.ar    1  UNL1        0.0326
     10 C         139.3385  139.2887  166.3424 C.ar    1  UNL1        0.0214
     11 C         138.9379  139.4783  167.7754 C.ar    1  UNL1        0.0075
     12 C         139.7416  140.3788  168.6660 C.ar    1  UNL1        0.0702
     13 C         140.9460  141.0896  168.1235 C.ar    1  UNL1        0.2620
     14 O         141.7497  141.9901  169.0141 O.2     1  UNL1       -0.2669
     15 N         141.3466  140.9000  166.6905 N.ar    1  UNL1       -0.2909
     16 C         140.5428  139.9996  165.7999 C.ar    1  UNL1        0.0980
     17 N         140.5402  138.7198  162.0433 N.pl3   1  UNL1       -0.3033
     18 C         141.8451  138.1605  161.5591 C.3     1  UNL1        0.0910
     19 C         141.8176  138.1512  160.0593 C.3     1  UNL1        0.0227
     20 C         142.8254  137.7102  159.0397 C.3     1  UNL1        0.0018
     21 C         142.5113  137.8228  157.5773 C.3     1  UNL1        0.0014
     22 C         141.1894  138.3764  157.1345 C.3     1  UNL1        0.0155
     23 C         140.1815  138.8175  158.1542 C.3     1  UNL1        0.0525
     24 N         138.8596  139.3711  157.7114 N.3     1  UNL1       -0.3221
     25 C         140.4956  138.7049  159.6166 C.3     1  UNL1        0.0356
     26 C         139.7062  139.0563  160.8427 C.3     1  UNL1        0.0923
     27 H         138.8168  139.3750  156.6923 H       1  UNL1        0.1188
     28 H         138.7563  140.3242  158.0597 H       1  UNL1        0.1188
     29 C         139.3410  140.5684  170.0990 C.2     1  UNL1        0.0775
     30 O         139.3409  139.3992  171.0387 O.co2   1  UNL1       -0.5444
     31 O         138.9405  141.9271  170.5923 O.co2   1  UNL1       -0.5444
@<TRIPOS>UNITY_ATOM_ATTR
30 1
charge -1
@<TRIPOS>BOND
     1     2     1    1
     2     2     3    1
     3     3     4    1
     4     4     5    1
     5     5     6   ar
     6     6    17    1
     7    17    18    1
     8    19    18    1
     9    19    20    1
    10    20    21    1
    11    21    22    1
    12    22    23    1
    13    23    24    1
    14    23    25    1
    15    25    26    1
    16     6     7   ar
    17     7     8    1
    18     7     9   ar
    19     9    10   ar
    20    10    11   ar
    21    11    12   ar
    22    12    29    1
    23    29    30   ar
    24    29    31   ar
    25    12    13   ar
    26    13    14    2
    27    13    15   ar
    28    15    16   ar
    29    15     2    1
    30    16     5   ar
    31    26    17    1
    32    16    10   ar
    33    25    19    1
    34    24    27    1
    35    24    28    1
@<TRIPOS>MOLECULE
*****
 31 35 0 0 0
SMALL
GASTEIGER

@<TRIPOS>ATOM
      1 C         137.8366  138.9396  166.5030 C.3     1  UNL1        0.0285
      2 C         139.0169  139.7073  165.9856 C.3     1  UNL1        0.1321
      3 C         139.2520  139.8156  164.5082 C.3     1  UNL1        0.2279
      4 O         140.4323  140.5832  163.9908 O.3     1  UNL1       -0.4707
      5 C         141.3774  141.2426  164.9510 C.ar    1  UNL1        0.1697
      6 C         142.5577  142.0102  164.4336 C.ar    1  UNL1        0.1115
      7 C         143.5029  142.6695  165.3938 C.ar    1  UNL1        0.1564
      8 F         144.6832  143.4372  164.8764 F       1  UNL1       -0.2028
      9 C         143.2678  142.5612  166.8713 C.ar    1  UNL1        0.0326
     10 C         142.0875  141.7936  167.3887 C.ar    1  UNL1        0.0214
     11 C         141.8524  141.6853  168.8661 C.ar    1  UNL1        0.0075
     12 C         140.6721  140.9176  169.3834 C.ar    1  UNL1        0.0702
     13 C         139.7269  140.2583  168.4233 C.ar    1  UNL1        0.2620
     14 O         138.5466  139.4907  168.9407 O.2     1  UNL1       -0.2669
     15 N         139.9620  140.3666  166.9458 N.ar    1  UNL1       -0.2909
     16 C         141.1423  141.1342  166.4284 C.ar    1  UNL1        0.0980
     17 N         142.7929  142.1185  162.9562 N.pl3   1  UNL1       -0.3033
     18 C         143.5004  141.1106  162.0997 C.3     1  UNL1        0.0910
     19 C         143.5065  141.6230  160.6899 C.3     1  UNL1        0.0227
     20 C         144.0620  141.0545  159.4178 C.3     1  UNL1        0.0018
     21 C         143.9138  141.8106  158.1308 C.3     1  UNL1        0.0014
     22 C         143.2100  143.1352  158.1159 C.3     1  UNL1        0.0155
     23 C         142.6545  143.7037  159.3881 C.3     1  UNL1        0.0525
     24 N         141.9508  145.0283  159.3732 N.3     1  UNL1       -0.3221
     25 C         142.8028  142.9476  160.6751 C.3     1  UNL1        0.0356
     26 C         142.3617  143.2538  162.0756 C.3     1  UNL1        0.0923
     27 H         141.9420  145.3979  158.4226 H       1  UNL1        0.1188
     28 H         142.4397  145.6799  159.9869 H       1  UNL1        0.1188
     29 C         140.4370  140.8093  170.8610 C.2     1  UNL1        0.0775
     30 O         139.9298  139.5254  171.4476 O.co2   1  UNL1       -0.5444
     31 O         140.7092  141.9850  171.7519 O.co2   1  UNL1       -0.5444
@<TRIPOS>UNITY_ATOM_ATTR
30 1
charge -1
@<TRIPOS>BOND
     1     2     1    1
     2     2     3    1
     3     3     4    1
     4     4     5    1
     5     5     6   ar
     6     6    17    1
     7    17    18    1
     8    19    18    1
     9    19    20    1
    10    20    21    1
    11    21    22    1
    12    22    23    1
    13    23    24    1
    14    23    25    1
    15    25    26    1
    16     6     7   ar
    17     7     8    1
    18     7     9   ar
    19     9    10   ar
    20    10    11   ar
    21    11    12   ar
    22    12    29    1
    23    29    30   ar
    24    29    31   ar
    25    12    13   ar
    26    13    14    2
    27    13    15   ar
    28    15    16   ar
    29    15     2    1
    30    16     5   ar
    31    26    17    1
    32    16    10   ar
    33    25    19    1
    34    24    27    1
    35    24    28    1
@<TRIPOS>MOLECULE
*****
 31 35 0 0 0
SMALL
GASTEIGER

@<TRIPOS>ATOM
      1 C         137.7814  138.7814  166.5756 C.3     1  UNL1        0.0285
      2 C         138.9620  139.5338  166.0370 C.3     1  UNL1        0.1321
      3 C         139.2075  139.5852  164.5582 C.3     1  UNL1        0.2279
      4 O         140.3881  140.3376  164.0196 O.3     1  UNL1       -0.4707
      5 C         141.3232  141.0386  164.9598 C.ar    1  UNL1        0.1697
      6 C         142.5038  141.7910  164.4213 C.ar    1  UNL1        0.1115
      7 C         143.4389  142.4920  165.3615 C.ar    1  UNL1        0.1564
      8 F         144.6195  143.2444  164.8230 F       1  UNL1       -0.2028
      9 C         143.1934  142.4406  166.8405 C.ar    1  UNL1        0.0326
     10 C         142.0128  141.6882  167.3791 C.ar    1  UNL1        0.0214
     11 C         141.7673  141.6368  168.8579 C.ar    1  UNL1        0.0075
     12 C         140.5867  140.8844  169.3965 C.ar    1  UNL1        0.0702
     13 C         139.6516  140.1834  168.4562 C.ar    1  UNL1        0.2620
     14 O         138.4710  139.4310  168.9948 O.2     1  UNL1       -0.2669
     15 N         139.8971  140.2348  166.9773 N.ar    1  UNL1       -0.2909
     16 C         141.0777  140.9872  166.4387 C.ar    1  UNL1        0.0980
     17 N         142.7493  141.8424  162.9424 N.pl3   1  UNL1       -0.3033
     18 C         142.6466  143.0608  162.0734 C.3     1  UNL1        0.0910
     19 C         142.9745  142.6558  160.6667 C.3     1  UNL1        0.0227
     20 C         143.0344  143.4346  159.3862 C.3     1  UNL1        0.0018
     21 C         143.3997  142.7448  158.1053 C.3     1  UNL1        0.0014
     22 C         143.7051  141.2762  158.1049 C.3     1  UNL1        0.0155
     23 C         143.6451  140.4974  159.3855 C.3     1  UNL1        0.0525
     24 N         143.9505  139.0288  159.3852 N.3     1  UNL1       -0.3221
     25 C         143.2798  141.1872  160.6664 C.3     1  UNL1        0.0356
     26 C         143.1407  140.6845  162.0728 C.3     1  UNL1        0.0923
     27 H         144.1771  138.7289  158.4370 H       1  UNL1        0.1188
     28 H         143.1371  138.5123  159.7199 H       1  UNL1        0.1188
     29 C         140.3412  140.8331  170.8754 C.2     1  UNL1        0.0775
     30 O         139.8242  139.5744  171.5066 O.co2   1  UNL1       -0.5444
     31 O         140.6129  142.0404  171.7231 O.co2   1  UNL1       -0.5444
@<TRIPOS>UNITY_ATOM_ATTR
30 1
charge -1
@<TRIPOS>BOND
     1     2     1    1
     2     2     3    1
     3     3     4    1
     4     4     5    1
     5     5     6   ar
     6     6    17    1
     7    17    18    1
     8    19    18    1
     9    19    20    1
    10    20    21    1
    11    21    22    1
    12    22    23    1
    13    23    24    1
    14    23    25    1
    15    25    26    1
    16     6     7   ar
    17     7     8    1
    18     7     9   ar
    19     9    10   ar
    20    10    11   ar
    21    11    12   ar
    22    12    29    1
    23    29    30   ar
    24    29    31   ar
    25    12    13   ar
    26    13    14    2
    27    13    15   ar
    28    15    16   ar
    29    15     2    1
    30    16     5   ar
    31    26    17    1
    32    16    10   ar
    33    25    19    1
    34    24    27    1
    35    24    28    1
@<TRIPOS>MOLECULE
*****
 31 35 0 0 0
SMALL
GASTEIGER

@<TRIPOS>ATOM
      1 C         139.9780  144.5884  160.9315 C.3     1  UNL1        0.0285
      2 C         139.8841  143.3792  161.8141 C.3     1  UNL1        0.1321
      3 C         140.3557  143.4501  163.2362 C.3     1  UNL1        0.2279
      4 O         140.2618  142.2408  164.1187 O.3     1  UNL1       -0.4707
      5 C         139.6962  140.9606  163.5792 C.ar    1  UNL1        0.1697
      6 C         139.6022  139.7514  164.4617 C.ar    1  UNL1        0.1115
      7 C         139.0366  138.4712  163.9222 C.ar    1  UNL1        0.1564
      8 F         138.9426  137.2620  164.8047 F       1  UNL1       -0.2028
      9 C         138.5649  138.4003  162.5000 C.ar    1  UNL1        0.0326
     10 C         138.6588  139.6095  161.6174 C.ar    1  UNL1        0.0214
     11 C         138.1871  139.5386  160.1953 C.ar    1  UNL1        0.0075
     12 C         138.2811  140.7478  159.3128 C.ar    1  UNL1        0.0702
     13 C         138.8467  142.0280  159.8523 C.ar    1  UNL1        0.2620
     14 O         138.9407  143.2373  158.9698 O.2     1  UNL1       -0.2669
     15 N         139.3184  142.0990  161.2745 N.ar    1  UNL1       -0.2909
     16 C         139.2245  140.8897  162.1571 C.ar    1  UNL1        0.0980
     17 N         140.0739  139.8223  165.8838 N.pl3   1  UNL1       -0.3033
     18 C         141.5025  139.8041  166.3409 C.3     1  UNL1        0.0910
     19 C         141.5113  139.8944  167.8382 C.3     1  UNL1        0.0227
     20 C         142.6313  139.9188  168.8357 C.3     1  UNL1        0.0018
     21 C         142.3283  140.0173  170.3014 C.3     1  UNL1        0.0014
     22 C         140.9052  140.0913  170.7697 C.3     1  UNL1        0.0155
     23 C         139.7851  140.0669  169.7723 C.3     1  UNL1        0.0525
     24 N         138.3620  140.1409  170.2406 N.3     1  UNL1       -0.3221
     25 C         140.0882  139.9685  168.3065 C.3     1  UNL1        0.0356
     26 C         139.1998  139.9239  167.0987 C.3     1  UNL1        0.0923
     27 H         138.3419  140.2032  171.2585 H       1  UNL1        0.1188
     28 H         137.8616  139.3041  169.9411 H       1  UNL1        0.1188
     29 C         137.8093  140.6769  157.8906 C.2     1  UNL1        0.0775
     30 O         136.3758  140.3524  157.5912 O.co2   1  UNL1       -0.5444
     31 O         138.7712  140.9303  156.7679 O.co2   1  UNL1       -0.5444
@<TRIPOS>UNITY_ATOM_ATTR
30 1
charge -1
@<TRIPOS>BOND
     1     2     1    1
     2     2     3    1
     3     3     4    1
     4     4     5    1
     5     5     6   ar
     6     6    17    1
     7    17    18    1
     8    19    18    1
     9    19    20    1
    10    20    21    1
    11    21    22    1
    12    22    23    1
    13    23    24    1
    14    23    25    1
    15    25    26    1
    16     6     7   ar
    17     7     8    1
    18     7     9   ar
    19     9    10   ar
    20    10    11   ar
    21    11    12   ar
    22    12    29    1
    23    29    30   ar
    24    29    31   ar
    25    12    13   ar
    26    13    14    2
    27    13    15   ar
    28    15    16   ar
    29    15     2    1
    30    16     5   ar
    31    26    17    1
    32    16    10   ar
    33    25    19    1
    34    24    27    1
    35    24    28    1
@<TRIPOS>MOLECULE
*****
 31 35 0 0 0
SMALL
GASTEIGER

@<TRIPOS>ATOM
      1 C         138.4512  139.4765  166.8363 C.3     1  UNL1        0.0285
      2 C         139.4283  140.3758  166.1388 C.3     1  UNL1        0.1321
      3 C         139.1814  140.7943  164.7197 C.3     1  UNL1        0.2279
      4 O         140.1585  141.6936  164.0221 O.3     1  UNL1       -0.4707
      5 C         141.3825  142.1744  164.7437 C.ar    1  UNL1        0.1697
      6 C         142.3596  143.0737  164.0462 C.ar    1  UNL1        0.1115
      7 C         143.5835  143.5545  164.7677 C.ar    1  UNL1        0.1564
      8 F         144.5606  144.4537  164.0702 F       1  UNL1       -0.2028
      9 C         143.8305  143.1360  166.1869 C.ar    1  UNL1        0.0326
     10 C         142.8534  142.2367  166.8844 C.ar    1  UNL1        0.0214
     11 C         143.1002  141.8182  168.3035 C.ar    1  UNL1        0.0075
     12 C         142.1231  140.9190  169.0011 C.ar    1  UNL1        0.0702
     13 C         140.8991  140.4381  168.2795 C.ar    1  UNL1        0.2620
     14 O         139.9220  139.5389  168.9771 O.2     1  UNL1       -0.2669
     15 N         140.6522  140.8566  166.8603 N.ar    1  UNL1       -0.2909
     16 C         141.6293  141.7559  166.1628 C.ar    1  UNL1        0.0980
     17 N         142.1127  143.4921  162.6271 N.pl3   1  UNL1       -0.3033
     18 C         141.0341  144.4227  162.1571 C.3     1  UNL1        0.0910
     19 C         141.1559  144.5592  160.6683 C.3     1  UNL1        0.0227
     20 C         140.3653  145.3447  159.6644 C.3     1  UNL1        0.0018
     21 C         140.7284  145.2840  158.2103 C.3     1  UNL1        0.0014
     22 C         141.8822  144.4379  157.7600 C.3     1  UNL1        0.0155
     23 C         142.6730  143.6524  158.7639 C.3     1  UNL1        0.0525
     24 N         143.8268  142.8062  158.3137 N.3     1  UNL1       -0.3221
     25 C         142.3098  143.7130  160.2181 C.3     1  UNL1        0.0356
     26 C         142.9011  143.0536  161.4286 C.3     1  UNL1        0.0923
     27 H         143.9300  142.8828  157.3019 H       1  UNL1        0.1188
     28 H         143.6532  141.8331  158.5652 H       1  UNL1        0.1188
     29 C         142.3700  140.5005  170.4203 C.2     1  UNL1        0.0775
     30 O         141.5390  141.0775  171.5277 O.co2   1  UNL1       -0.5444
     31 O         143.4480  139.5050  170.7319 O.co2   1  UNL1       -0.5444
@<TRIPOS>UNITY_ATOM_ATTR
30 1
charge -1
@<TRIPOS>BOND
     1     2     1    1
     2     2     3    1
     3     3     4    1
     4     4     5    1
     5     5     6   ar
     6     6    17    1
     7    17    18    1
     8    19    18    1
     9    19    20    1
    10    20    21    1
    11    21    22    1
    12    22    23    1
    13    23    24    1
    14    23    25    1
    15    25    26    1
    16     6     7   ar
    17     7     8    1
    18     7     9   ar
    19     9    10   ar
    20    10    11   ar
    21    11    12   ar
    22    12    29    1
    23    29    30   ar
    24    29    31   ar
    25    12    13   ar
    26    13    14    2
    27    13    15   ar
    28    15    16   ar
    29    15     2    1
    30    16     5   ar
    31    26    17    1
    32    16    10   ar
    33    25    19    1
    34    24    27    1
    35    24    28    1
@<TRIPOS>MOLECULE
*****
 31 35 0 0 0
SMALL
GASTEIGER

@<TRIPOS>ATOM
      1 C         144.2155  141.3387  160.3851 C.3     1  UNL1        0.0285
      2 C         143.3648  141.7974  161.5322 C.3     1  UNL1        0.1321
      3 C         143.4612  141.1071  162.8604 C.3     1  UNL1        0.2279
      4 O         142.6105  141.5658  164.0075 O.3     1  UNL1       -0.4707
      5 C         141.6634  142.7148  163.8265 C.ar    1  UNL1        0.1697
      6 C         140.8128  143.1735  164.9736 C.ar    1  UNL1        0.1115
      7 C         139.8657  144.3225  164.7926 C.ar    1  UNL1        0.1564
      8 F         139.0150  144.7813  165.9397 F       1  UNL1       -0.2028
      9 C         139.7693  145.0129  163.4643 C.ar    1  UNL1        0.0326
     10 C         140.6200  144.5542  162.3172 C.ar    1  UNL1        0.0214
     11 C         140.5236  145.2445  160.9890 C.ar    1  UNL1        0.0075
     12 C         141.3743  144.7858  159.8418 C.ar    1  UNL1        0.0702
     13 C         142.3213  143.6368  160.0229 C.ar    1  UNL1        0.2620
     14 O         143.1720  143.1781  158.8758 O.2     1  UNL1       -0.2669
     15 N         142.4177  142.9464  161.3511 N.ar    1  UNL1       -0.2909
     16 C         141.5671  143.4051  162.4983 C.ar    1  UNL1        0.0980
     17 N         140.9091  142.4833  166.3018 N.pl3   1  UNL1       -0.3033
     18 C         139.8849  141.5598  166.8920 C.3     1  UNL1        0.0910
     19 C         140.3895  141.1010  168.2281 C.3     1  UNL1        0.0227
     20 C         139.8049  140.1833  169.2605 C.3     1  UNL1        0.0018
     21 C         140.5565  139.9054  170.5286 C.3     1  UNL1        0.0014
     22 C         141.8925  140.5453  170.7642 C.3     1  UNL1        0.0155
     23 C         142.4771  141.4630  169.7317 C.3     1  UNL1        0.0525
     24 N         143.8131  142.1029  169.9673 N.3     1  UNL1       -0.3221
     25 C         141.7256  141.7409  168.4636 C.3     1  UNL1        0.0356
     26 C         142.0467  142.5952  167.2732 C.3     1  UNL1        0.0923
     27 H         144.1777  141.8054  170.8722 H       1  UNL1        0.1188
     28 H         143.7103  143.1177  169.9591 H       1  UNL1        0.1188
     29 C         141.2778  145.4762  158.5136 C.2     1  UNL1        0.0775
     30 O         140.0040  145.4096  157.7244 O.co2   1  UNL1       -0.5444
     31 O         142.4553  146.2331  157.9745 O.co2   1  UNL1       -0.5444
@<TRIPOS>UNITY_ATOM_ATTR
30 1
charge -1
@<TRIPOS>BOND
     1     2     1    1
     2     2     3    1
     3     3     4    1
     4     4     5    1
     5     5     6   ar
     6     6    17    1
     7    17    18    1
     8    19    18    1
     9    19    20    1
    10    20    21    1
    11    21    22    1
    12    22    23    1
    13    23    24    1
    14    23    25    1
    15    25    26    1
    16     6     7   ar
    17     7     8    1
    18     7     9   ar
    19     9    10   ar
    20    10    11   ar
    21    11    12   ar
    22    12    29    1
    23    29    30   ar
    24    29    31   ar
    25    12    13   ar
    26    13    14    2
    27    13    15   ar
    28    15    16   ar
    29    15     2    1
    30    16     5   ar
    31    26    17    1
    32    16    10   ar
    33    25    19    1
    34    24    27    1
    35    24    28    1
@<TRIPOS>MOLECULE
*****
 31 35 0 0 0
SMALL
GASTEIGER

@<TRIPOS>ATOM
      1 C         143.3391  138.6412  166.7110 C.3     1  UNL1        0.0285
      2 C         142.5373  139.7483  166.0934 C.3     1  UNL1        0.1321
      3 C         142.4515  139.8697  164.6008 C.3     1  UNL1        0.2279
      4 O         141.6497  140.9769  163.9832 O.3     1  UNL1       -0.4707
      5 C         140.9338  141.9626  164.8582 C.ar    1  UNL1        0.1697
      6 C         140.1320  143.0697  164.2406 C.ar    1  UNL1        0.1115
      7 C         139.4160  144.0554  165.1156 C.ar    1  UNL1        0.1564
      8 F         138.6142  145.1626  164.4980 F       1  UNL1       -0.2028
      9 C         139.5018  143.9341  166.6083 C.ar    1  UNL1        0.0326
     10 C         140.3035  142.8269  167.2259 C.ar    1  UNL1        0.0214
     11 C         140.3893  142.7055  168.7185 C.ar    1  UNL1        0.0075
     12 C         141.1911  141.5984  169.3361 C.ar    1  UNL1        0.0702
     13 C         141.9071  140.6127  168.4611 C.ar    1  UNL1        0.2620
     14 O         142.7089  139.5055  169.0786 O.2     1  UNL1       -0.2669
     15 N         141.8213  140.7340  166.9684 N.ar    1  UNL1       -0.2909
     16 C         141.0195  141.8412  166.3508 C.ar    1  UNL1        0.0980
     17 N         140.0462  143.1911  162.7481 N.pl3   1  UNL1       -0.3033
     18 C         139.1524  142.3902  161.8482 C.3     1  UNL1        0.0910
     19 C         139.3929  142.8389  160.4372 C.3     1  UNL1        0.0227
     20 C         138.7974  142.4050  159.1306 C.3     1  UNL1        0.0018
     21 C         139.2444  143.0493  157.8519 C.3     1  UNL1        0.0014
     22 C         140.2869  144.1274  157.8797 C.3     1  UNL1        0.0155
     23 C         140.8824  144.5614  159.1862 C.3     1  UNL1        0.0525
     24 N         141.9249  145.6395  159.2140 N.3     1  UNL1       -0.3221
     25 C         140.4355  143.9171  160.4650 C.3     1  UNL1        0.0356
     26 C         140.8392  144.1348  161.8931 C.3     1  UNL1        0.0923
     27 H         142.1062  145.9617  158.2634 H       1  UNL1        0.1188
     28 H         142.7856  145.2699  159.6177 H       1  UNL1        0.1188
     29 C         141.2769  141.4770  170.8287 C.2     1  UNL1        0.0775
     30 O         140.4687  140.4354  171.5442 O.co2   1  UNL1       -0.5444
     31 O         142.1708  142.3973  171.6059 O.co2   1  UNL1       -0.5444
@<TRIPOS>UNITY_ATOM_ATTR
30 1
charge -1
@<TRIPOS>BOND
     1     2     1    1
     2     2     3    1
     3     3     4    1
     4     4     5    1
     5     5     6   ar
     6     6    17    1
     7    17    18    1
     8    19    18    1
     9    19    20    1
    10    20    21    1
    11    21    22    1
    12    22    23    1
    13    23    24    1
    14    23    25    1
    15    25    26    1
    16     6     7   ar
    17     7     8    1
    18     7     9   ar
    19     9    10   ar
    20    10    11   ar
    21    11    12   ar
    22    12    29    1
    23    29    30   ar
    24    29    31   ar
    25    12    13   ar
    26    13    14    2
    27    13    15   ar
    28    15    16   ar
    29    15     2    1
    30    16     5   ar
    31    26    17    1
    32    16    10   ar
    33    25    19    1
    34    24    27    1
    35    24    28    1
@<TRIPOS>MOLECULE
*****
 31 35 0 0 0
SMALL
GASTEIGER

@<TRIPOS>ATOM
      1 C         143.3340  138.6819  166.8146 C.3     1  UNL1        0.0285
      2 C         142.4790  139.7007  166.1210 C.3     1  UNL1        0.1321
      3 C         142.2795  139.6267  164.6362 C.3     1  UNL1        0.2279
      4 O         141.4246  140.6456  163.9427 O.3     1  UNL1       -0.4707
      5 C         140.7692  141.7384  164.7339 C.ar    1  UNL1        0.1697
      6 C         139.9142  142.7572  164.0403 C.ar    1  UNL1        0.1115
      7 C         139.2588  143.8501  164.8315 C.ar    1  UNL1        0.1564
      8 F         138.4039  144.8689  164.1379 F       1  UNL1       -0.2028
      9 C         139.4583  143.9241  166.3164 C.ar    1  UNL1        0.0326
     10 C         140.3133  142.9053  167.0100 C.ar    1  UNL1        0.0214
     11 C         140.5128  142.9793  168.4948 C.ar    1  UNL1        0.0075
     12 C         141.3677  141.9605  169.1883 C.ar    1  UNL1        0.0702
     13 C         142.0231  140.8676  168.3971 C.ar    1  UNL1        0.2620
     14 O         142.8781  139.8488  169.0907 O.2     1  UNL1       -0.2669
     15 N         141.8236  140.7936  166.9122 N.ar    1  UNL1       -0.2909
     16 C         140.9687  141.8124  166.2187 C.ar    1  UNL1        0.0980
     17 N         139.7147  142.6832  162.5555 N.pl3   1  UNL1       -0.3033
     18 C         140.2607  143.6463  161.5434 C.3     1  UNL1        0.0910
     19 C         139.8176  143.1914  160.1844 C.3     1  UNL1        0.0227
     20 C         140.0547  143.7494  158.8124 C.3     1  UNL1        0.0018
     21 C         139.4719  143.0632  157.6126 C.3     1  UNL1        0.0014
     22 C         138.6520  141.8190  157.7848 C.3     1  UNL1        0.0155
     23 C         138.4149  141.2610  159.1569 C.3     1  UNL1        0.0525
     24 N         137.5950  140.0168  159.3290 N.3     1  UNL1       -0.3221
     25 C         138.9976  141.9472  160.3566 C.3     1  UNL1        0.0356
     26 C         138.9341  141.6331  161.8220 C.3     1  UNL1        0.0923
     27 H         137.2812  139.6873  158.4161 H       1  UNL1        0.1188
     28 H         136.7846  140.2218  159.9135 H       1  UNL1        0.1188
     29 C         141.5672  142.0345  170.6732 C.2     1  UNL1        0.0775
     30 O         142.5696  142.9906  171.2485 O.co2   1  UNL1       -0.5444
     31 O         140.7643  141.1524  171.5827 O.co2   1  UNL1       -0.5444
@<TRIPOS>UNITY_ATOM_ATTR
30 1
charge -1
@<TRIPOS>BOND
     1     2     1    1
     2     2     3    1
     3     3     4    1
     4     4     5    1
     5     5     6   ar
     6     6    17    1
     7    17    18    1
     8    19    18    1
     9    19    20    1
    10    20    21    1
    11    21    22    1
    12    22    23    1
    13    23    24    1
    14    23    25    1
    15    25    26    1
    16     6     7   ar
    17     7     8    1
    18     7     9   ar
    19     9    10   ar
    20    10    11   ar
    21    11    12   ar
    22    12    29    1
    23    29    30   ar
    24    29    31   ar
    25    12    13   ar
    26    13    14    2
    27    13    15   ar
    28    15    16   ar
    29    15     2    1
    30    16     5   ar
    31    26    17    1
    32    16    10   ar
    33    25    19    1
    34    24    27    1
    35    24    28    1
@<TRIPOS>MOLECULE
*****
 31 35 0 0 0
SMALL
GASTEIGER

@<TRIPOS>ATOM
      1 C         138.8708  137.7798  163.4139 C.3     1  UNL1        0.0285
      2 C         139.3557  139.1811  163.1874 C.3     1  UNL1        0.1321
      3 C         139.5368  139.6955  161.7901 C.3     1  UNL1        0.2279
      4 O         140.0217  141.0968  161.5637 O.3     1  UNL1       -0.4707
      5 C         140.3255  141.9837  162.7346 C.ar    1  UNL1        0.1697
      6 C         140.8103  143.3850  162.5081 C.ar    1  UNL1        0.1115
      7 C         141.1141  144.2719  163.6790 C.ar    1  UNL1        0.1564
      8 F         141.5990  145.6732  163.4526 F       1  UNL1       -0.2028
      9 C         140.9330  143.7576  165.0764 C.ar    1  UNL1        0.0326
     10 C         140.4481  142.3563  165.3029 C.ar    1  UNL1        0.0214
     11 C         140.2669  141.8419  166.7002 C.ar    1  UNL1        0.0075
     12 C         139.7820  140.4407  166.9267 C.ar    1  UNL1        0.0702
     13 C         139.4783  139.5537  165.7558 C.ar    1  UNL1        0.2620
     14 O         138.9934  138.1524  165.9822 O.2     1  UNL1       -0.2669
     15 N         139.6594  140.0681  164.3583 N.ar    1  UNL1       -0.2909
     16 C         140.1443  141.4693  164.1319 C.ar    1  UNL1        0.0980
     17 N         140.9915  143.8993  161.1108 N.pl3   1  UNL1       -0.3033
     18 C         140.0984  144.8793  160.4093 C.3     1  UNL1        0.0910
     19 C         140.6525  145.1097  159.0345 C.3     1  UNL1        0.0227
     20 C         140.1917  145.9739  157.8984 C.3     1  UNL1        0.0018
     21 C         140.9663  146.0005  156.6142 C.3     1  UNL1        0.0014
     22 C         142.2018  145.1630  156.4660 C.3     1  UNL1        0.0155
     23 C         142.6627  144.2987  157.6021 C.3     1  UNL1        0.0525
     24 N         143.8982  143.4611  157.4540 N.3     1  UNL1       -0.3221
     25 C         141.8881  144.2720  158.8863 C.3     1  UNL1        0.0356
     26 C         142.0976  143.5240  160.1695 C.3     1  UNL1        0.0923
     27 H         144.2944  143.6010  156.5245 H       1  UNL1        0.1188
     28 H         143.6587  142.4773  157.5769 H       1  UNL1        0.1188
     29 C         139.6009  139.9263  168.3241 C.2     1  UNL1        0.0775
     30 O         138.2470  139.4777  168.7886 O.co2   1  UNL1       -0.5444
     31 O         140.7737  139.8606  169.2570 O.co2   1  UNL1       -0.5444
@<TRIPOS>UNITY_ATOM_ATTR
30 1
charge -1
@<TRIPOS>BOND
     1     2     1    1
     2     2     3    1
     3     3     4    1
     4     4     5    1
     5     5     6   ar
     6     6    17    1
     7    17    18    1
     8    19    18    1
     9    19    20    1
    10    20    21    1
    11    21    22    1
    12    22    23    1
    13    23    24    1
    14    23    25    1
    15    25    26    1
    16     6     7   ar
    17     7     8    1
    18     7     9   ar
    19     9    10   ar
    20    10    11   ar
    21    11    12   ar
    22    12    29    1
    23    29    30   ar
    24    29    31   ar
    25    12    13   ar
    26    13    14    2
    27    13    15   ar
    28    15    16   ar
    29    15     2    1
    30    16     5   ar
    31    26    17    1
    32    16    10   ar
    33    25    19    1
    34    24    27    1
    35    24    28    1
