@<TRIPOS>MOLECULE
*****
 35 39 0 0 0
SMALL
GASTEIGER

@<TRIPOS>ATOM
      1 N         137.3448  139.0521  161.5618 N.pl3   1  UNL1       -0.2802
      2 H         136.4673  138.6058  161.5703 H       1  UNL1        0.1552
      3 C         138.0398  139.3152  160.2588 C.ar    1  UNL1        0.2208
      4 N         139.3406  138.6343  159.9519 N.ar    1  UNL1       -0.2111
      5 C         140.0357  138.8973  158.6489 C.ar    1  UNL1        0.1147
      6 C         139.4298  139.8412  157.6528 C.ar    1  UNL1        0.0960
      7 CL        140.1248  140.1042  156.3499 Cl      1  UNL1       -0.0790
      8 C         138.1289  140.5220  157.9598 C.ar    1  UNL1        0.1138
      9 N         137.4339  140.2590  159.2627 N.ar    1  UNL1       -0.2111
     10 C         137.5230  141.4659  156.9637 C.ar    1  UNL1        0.1031
     11 C         136.2784  141.2228  156.1627 C.ar    1  UNL1        0.1196
     12 N         136.0416  142.4252  155.2977 N.ar    1  UNL1       -0.2248
     13 C         137.1399  143.4114  155.5642 C.ar    1  UNL1        0.1479
     14 C         137.4246  144.7727  155.0023 C.ar    1  UNL1        0.0374
     15 C         138.6249  145.5411  155.4701 C.ar    1  UNL1        0.0046
     16 C         139.5405  144.9482  156.4998 C.ar    1  UNL1        0.0191
     17 C         139.2558  143.5869  157.0616 C.ar    1  UNL1        0.0815
     18 N         138.0555  142.8185  156.5939 N.ar    1  UNL1       -0.2874
     19 C         137.9110  140.8987  163.2995 C.ar    1  UNL1        0.1517
     20 C         138.5529  141.3156  164.5896 C.ar    1  UNL1        0.0339
     21 C         139.2704  140.3029  165.4319 C.ar    1  UNL1       -0.0193
     22 C         139.3461  138.8732  164.9842 C.ar    1  UNL1       -0.0028
     23 C         138.7042  138.4564  163.6942 C.ar    1  UNL1        0.0174
     24 C         137.9866  139.4691  162.8518 C.ar    1  UNL1        0.0849
     25 C         139.9123  140.7198  166.7219 C.3     1  UNL1        0.0258
     26 C         140.8872  141.8596  166.7404 C.3     1  UNL1        0.0259
     27 C         141.5292  142.2767  168.0304 C.3     1  UNL1        0.0937
     28 N         141.1961  141.5538  169.3018 N.am    1  UNL1       -0.2795
     29 C         141.8380  141.9708  170.5919 C.2     1  UNL1        0.2261
     30 C         142.8129  143.1106  170.6104 C.3     1  UNL1        0.0948
     31 O         141.5050  141.2480  171.8633 O.2     1  UNL1       -0.2749
     32 C         140.2212  140.4140  169.2833 C.3     1  UNL1        0.0937
     33 C         139.5793  139.9970  167.9933 C.3     1  UNL1        0.0259
     34 C         137.9749  142.9221  161.6711 C.3     1  UNL1        0.2525
     35 O         137.1935  141.9115  162.4571 O.3     1  UNL1       -0.4702
@<TRIPOS>BOND
     1    34    35    1
     2    35    19    1
     3    19    20   ar
     4    20    21   ar
     5    21    25    1
     6    25    26    1
     7    26    27    1
     8    27    28    1
     9    28    29   am
    10    29    30    1
    11    29    31    2
    12    28    32    1
    13    32    33    1
    14    21    22   ar
    15    22    23   ar
    16    23    24   ar
    17    24     1    1
    18     1     3    1
    19     3     4   ar
    20     4     5   ar
    21     5     6   ar
    22     6     7    1
    23     6     8   ar
    24     8    10    1
    25    10    11   ar
    26    11    12   ar
    27    12    13   ar
    28    13    14   ar
    29    14    15   ar
    30    15    16   ar
    31    16    17   ar
    32    17    18   ar
    33     8     9   ar
    34    24    19   ar
    35     9     3   ar
    36    33    25    1
    37    18    10   ar
    38    18    13   ar
    39     1     2    1
@<TRIPOS>MOLECULE
*****
 35 39 0 0 0
SMALL
GASTEIGER

@<TRIPOS>ATOM
      1 N         143.7412  137.6135  161.6862 N.pl3   1  UNL1       -0.2802
      2 H         144.2164  136.7542  161.7573 H       1  UNL1        0.1552
      3 C         143.4580  138.2044  160.3369 C.ar    1  UNL1        0.2208
      4 N         143.8986  139.6035  160.0234 N.ar    1  UNL1       -0.2111
      5 C         143.6154  140.1944  158.6741 C.ar    1  UNL1        0.1147
      6 C         142.8916  139.3861  157.6382 C.ar    1  UNL1        0.0960
      7 CL        142.6084  139.9770  156.2889 Cl      1  UNL1       -0.0790
      8 C         142.4510  137.9869  157.9518 C.ar    1  UNL1        0.1138
      9 N         142.7342  137.3961  159.3010 N.ar    1  UNL1       -0.2111
     10 C         141.7273  137.1787  156.9160 C.ar    1  UNL1        0.1031
     11 C         140.3796  137.4918  156.3365 C.ar    1  UNL1        0.1196
     12 N         140.0436  136.4220  155.3402 N.ar    1  UNL1       -0.2248
     13 C         141.1835  135.4478  155.3039 C.ar    1  UNL1        0.1479
     14 C         141.4084  134.1952  154.5098 C.ar    1  UNL1        0.0374
     15 C         142.6739  133.4103  154.6897 C.ar    1  UNL1        0.0046
     16 C         143.7145  133.8780  155.6636 C.ar    1  UNL1        0.0191
     17 C         143.4896  135.1305  156.4577 C.ar    1  UNL1        0.0815
     18 N         142.2241  135.9154  156.2778 N.ar    1  UNL1       -0.2874
     19 C         141.8935  138.1768  163.4236 C.ar    1  UNL1        0.1517
     20 C         141.4528  138.8951  164.6646 C.ar    1  UNL1        0.0339
     21 C         142.4190  139.7684  165.4089 C.ar    1  UNL1       -0.0193
     22 C         143.8258  139.9234  164.9122 C.ar    1  UNL1       -0.0028
     23 C         144.2665  139.2050  163.6714 C.ar    1  UNL1        0.0174
     24 C         143.3004  138.3317  162.9270 C.ar    1  UNL1        0.0849
     25 C         141.9782  140.4866  166.6497 C.3     1  UNL1        0.0258
     26 C         141.4480  141.8868  166.5574 C.3     1  UNL1        0.0259
     27 C         141.0072  142.6052  167.7983 C.3     1  UNL1        0.0937
     28 N         141.0965  141.9233  169.1313 N.am    1  UNL1       -0.2795
     29 C         140.6557  142.6416  170.3723 C.2     1  UNL1        0.2261
     30 C         140.1256  144.0418  170.2800 C.3     1  UNL1        0.0948
     31 O         140.7451  141.9598  171.7054 O.2     1  UNL1       -0.2749
     32 C         141.6267  140.5232  169.2236 C.3     1  UNL1        0.0937
     33 C         142.0675  139.8048  167.9828 C.3     1  UNL1        0.0259
     34 C         139.9202  137.9186  161.7535 C.3     1  UNL1        0.2525
     35 O         140.9273  137.3035  162.6794 O.3     1  UNL1       -0.4702
@<TRIPOS>BOND
     1    34    35    1
     2    35    19    1
     3    19    20   ar
     4    20    21   ar
     5    21    25    1
     6    25    26    1
     7    26    27    1
     8    27    28    1
     9    28    29   am
    10    29    30    1
    11    29    31    2
    12    28    32    1
    13    32    33    1
    14    21    22   ar
    15    22    23   ar
    16    23    24   ar
    17    24     1    1
    18     1     3    1
    19     3     4   ar
    20     4     5   ar
    21     5     6   ar
    22     6     7    1
    23     6     8   ar
    24     8    10    1
    25    10    11   ar
    26    11    12   ar
    27    12    13   ar
    28    13    14   ar
    29    14    15   ar
    30    15    16   ar
    31    16    17   ar
    32    17    18   ar
    33     8     9   ar
    34    24    19   ar
    35     9     3   ar
    36    33    25    1
    37    18    10   ar
    38    18    13   ar
    39     1     2    1
@<TRIPOS>MOLECULE
*****
 35 39 0 0 0
SMALL
GASTEIGER

@<TRIPOS>ATOM
      1 N         140.7062  145.8632  161.3612 N.pl3   1  UNL1       -0.2802
      2 H         140.6042  146.8411  161.4106 H       1  UNL1        0.1552
      3 C         140.7552  145.1807  160.0263 C.ar    1  UNL1        0.2208
      4 N         141.8115  145.5569  159.0300 N.ar    1  UNL1       -0.2111
      5 C         141.8604  144.8744  157.6951 C.ar    1  UNL1        0.1147
      6 C         140.8530  143.8158  157.3566 C.ar    1  UNL1        0.0960
      7 CL        140.9019  143.1334  156.0217 Cl      1  UNL1       -0.0790
      8 C         139.7967  143.4397  158.3530 C.ar    1  UNL1        0.1138
      9 N         139.7478  144.1221  159.6878 N.ar    1  UNL1       -0.2111
     10 C         138.7893  142.3811  158.0145 C.ar    1  UNL1        0.1031
     11 C         138.6221  141.0663  158.7169 C.ar    1  UNL1        0.1196
     12 N         137.5017  140.3241  158.0506 N.ar    1  UNL1       -0.2248
     13 C         136.9765  141.1801  156.9365 C.ar    1  UNL1        0.1479
     14 C         135.8765  140.9663  155.9394 C.ar    1  UNL1        0.0374
     15 C         135.5723  142.0237  154.9200 C.ar    1  UNL1        0.0046
     16 C         136.3680  143.2950  154.8977 C.ar    1  UNL1        0.0191
     17 C         137.4681  143.5089  155.8948 C.ar    1  UNL1        0.0815
     18 N         137.7723  142.4515  156.9141 N.ar    1  UNL1       -0.2874
     19 C         142.1107  144.3959  162.9812 C.ar    1  UNL1        0.1517
     20 C         142.2171  143.5883  164.2409 C.ar    1  UNL1        0.0339
     21 C         141.0256  143.4407  165.1400 C.ar    1  UNL1       -0.0193
     22 C         139.7277  144.1005  164.7796 C.ar    1  UNL1       -0.0028
     23 C         139.6212  144.9080  163.5200 C.ar    1  UNL1        0.0174
     24 C         140.8127  145.0557  162.6207 C.ar    1  UNL1        0.0849
     25 C         141.1321  142.6332  166.3996 C.3     1  UNL1        0.0258
     26 C         142.1074  141.4965  166.4815 C.3     1  UNL1        0.0259
     27 C         142.2140  140.6889  167.7411 C.3     1  UNL1        0.0937
     28 N         141.3453  141.0181  168.9187 N.am    1  UNL1       -0.2795
     29 C         141.4518  140.2105  170.1783 C.2     1  UNL1        0.2261
     30 C         142.4271  139.0738  170.2602 C.3     1  UNL1        0.0948
     31 O         140.5831  140.5397  171.3560 O.2     1  UNL1       -0.2749
     32 C         140.3700  142.1548  168.8368 C.3     1  UNL1        0.0937
     33 C         140.2634  142.9623  167.5773 C.3     1  UNL1        0.0259
     34 C         144.4018  143.5240  162.1206 C.3     1  UNL1        0.2525
     35 O         143.3022  144.5436  162.0821 O.3     1  UNL1       -0.4702
@<TRIPOS>BOND
     1    34    35    1
     2    35    19    1
     3    19    20   ar
     4    20    21   ar
     5    21    25    1
     6    25    26    1
     7    26    27    1
     8    27    28    1
     9    28    29   am
    10    29    30    1
    11    29    31    2
    12    28    32    1
    13    32    33    1
    14    21    22   ar
    15    22    23   ar
    16    23    24   ar
    17    24     1    1
    18     1     3    1
    19     3     4   ar
    20     4     5   ar
    21     5     6   ar
    22     6     7    1
    23     6     8   ar
    24     8    10    1
    25    10    11   ar
    26    11    12   ar
    27    12    13   ar
    28    13    14   ar
    29    14    15   ar
    30    15    16   ar
    31    16    17   ar
    32    17    18   ar
    33     8     9   ar
    34    24    19   ar
    35     9     3   ar
    36    33    25    1
    37    18    10   ar
    38    18    13   ar
    39     1     2    1
@<TRIPOS>MOLECULE
*****
 35 39 0 0 0
SMALL
GASTEIGER

@<TRIPOS>ATOM
      1 N         137.3451  139.0395  161.5085 N.pl3   1  UNL1       -0.2802
      2 H         136.4640  138.6003  161.5136 H       1  UNL1        0.1552
      3 C         138.0503  139.2908  160.2087 C.ar    1  UNL1        0.2208
      4 N         139.3527  138.6060  159.9175 N.ar    1  UNL1       -0.2111
      5 C         140.0580  138.8573  158.6177 C.ar    1  UNL1        0.1147
      6 C         139.4607  139.7933  157.6091 C.ar    1  UNL1        0.0960
      7 CL        140.1660  140.0445  156.3093 Cl      1  UNL1       -0.0790
      8 C         138.1582  140.4780  157.9003 C.ar    1  UNL1        0.1138
      9 N         137.4531  140.2267  159.2001 N.ar    1  UNL1       -0.2111
     10 C         137.5610  141.4140  156.8917 C.ar    1  UNL1        0.1031
     11 C         137.5588  142.9118  156.9718 C.ar    1  UNL1        0.1196
     12 N         136.8576  143.4399  155.7555 N.ar    1  UNL1       -0.2248
     13 C         136.4265  142.2685  154.9237 C.ar    1  UNL1        0.1479
     14 C         135.6942  142.1802  153.6176 C.ar    1  UNL1        0.0374
     15 C         135.3967  140.8398  153.0137 C.ar    1  UNL1        0.0046
     16 C         135.8315  139.5877  153.7159 C.ar    1  UNL1        0.0191
     17 C         136.5637  139.6759  155.0220 C.ar    1  UNL1        0.0815
     18 N         136.8612  141.0164  155.6259 N.ar    1  UNL1       -0.2874
     19 C         137.9301  140.8928  163.2328 C.ar    1  UNL1        0.1517
     20 C         138.5673  141.3106  164.5250 C.ar    1  UNL1        0.0339
     21 C         139.2566  140.2929  165.3848 C.ar    1  UNL1       -0.0193
     22 C         139.3088  138.8575  164.9525 C.ar    1  UNL1       -0.0028
     23 C         138.6716  138.4397  163.6604 C.ar    1  UNL1        0.0174
     24 C         137.9822  139.4573  162.8005 C.ar    1  UNL1        0.0849
     25 C         139.8938  140.7108  166.6768 C.3     1  UNL1        0.0258
     26 C         140.8927  141.8296  166.6929 C.3     1  UNL1        0.0259
     27 C         141.5300  142.2476  167.9850 C.3     1  UNL1        0.0937
     28 N         141.1682  141.5466  169.2608 N.am    1  UNL1       -0.2795
     29 C         141.8054  141.9645  170.5529 C.2     1  UNL1        0.2261
     30 C         142.8043  143.0834  170.5690 C.3     1  UNL1        0.0948
     31 O         141.4437  141.2635  171.8287 O.2     1  UNL1       -0.2749
     32 C         140.1693  140.4277  169.2446 C.3     1  UNL1        0.0937
     33 C         139.5321  140.0098  167.9526 C.3     1  UNL1        0.0259
     34 C         137.8848  143.2421  162.1244 C.3     1  UNL1        0.2525
     35 O         137.2407  141.9104  162.3730 O.3     1  UNL1       -0.4702
@<TRIPOS>BOND
     1    34    35    1
     2    35    19    1
     3    19    20   ar
     4    20    21   ar
     5    21    25    1
     6    25    26    1
     7    26    27    1
     8    27    28    1
     9    28    29   am
    10    29    30    1
    11    29    31    2
    12    28    32    1
    13    32    33    1
    14    21    22   ar
    15    22    23   ar
    16    23    24   ar
    17    24     1    1
    18     1     3    1
    19     3     4   ar
    20     4     5   ar
    21     5     6   ar
    22     6     7    1
    23     6     8   ar
    24     8    10    1
    25    10    11   ar
    26    11    12   ar
    27    12    13   ar
    28    13    14   ar
    29    14    15   ar
    30    15    16   ar
    31    16    17   ar
    32    17    18   ar
    33     8     9   ar
    34    24    19   ar
    35     9     3   ar
    36    33    25    1
    37    18    10   ar
    38    18    13   ar
    39     1     2    1
@<TRIPOS>MOLECULE
*****
 35 39 0 0 0
SMALL
GASTEIGER

@<TRIPOS>ATOM
      1 N         138.1750  138.2847  161.5504 N.pl3   1  UNL1       -0.2802
      2 H         137.6007  137.4851  161.5452 H       1  UNL1        0.1552
      3 C         138.5672  138.9347  160.2567 C.ar    1  UNL1        0.2208
      4 N         137.6502  139.9295  159.6090 N.ar    1  UNL1       -0.2111
      5 C         138.0424  140.5795  158.3153 C.ar    1  UNL1        0.1147
      6 C         139.3516  140.2347  157.6693 C.ar    1  UNL1        0.0960
      7 CL        139.7438  140.8848  156.3756 Cl      1  UNL1       -0.0790
      8 C         140.2686  139.2399  158.3171 C.ar    1  UNL1        0.1138
      9 N         139.8763  138.5899  159.6107 N.ar    1  UNL1       -0.2111
     10 C         141.5777  138.8951  157.6711 C.ar    1  UNL1        0.1031
     11 C         142.8644  139.6499  157.8285 C.ar    1  UNL1        0.1196
     12 N         143.9118  138.9562  157.0090 N.ar    1  UNL1       -0.2248
     13 C         143.2726  137.7727  156.3451 C.ar    1  UNL1        0.1479
     14 C         143.8177  136.7246  155.4209 C.ar    1  UNL1        0.0374
     15 C         142.9202  135.6387  154.9059 C.ar    1  UNL1        0.0046
     16 C         141.4776  135.6009  155.3151 C.ar    1  UNL1        0.0191
     17 C         140.9325  136.6490  156.2394 C.ar    1  UNL1        0.0815
     18 N         141.8300  137.7350  156.7544 N.ar    1  UNL1       -0.2874
     19 C         139.9348  138.3540  163.4605 C.ar    1  UNL1        0.1517
     20 C         140.4176  138.9223  164.7621 C.ar    1  UNL1        0.0339
     21 C         139.6233  139.9895  165.4551 C.ar    1  UNL1       -0.0193
     22 C         138.3463  140.4884  164.8465 C.ar    1  UNL1       -0.0028
     23 C         137.8636  139.9202  163.5450 C.ar    1  UNL1        0.0174
     24 C         138.6578  138.8529  162.8519 C.ar    1  UNL1        0.0849
     25 C         140.1061  140.5577  166.7566 C.3     1  UNL1        0.0258
     26 C         141.2781  141.4937  166.7775 C.3     1  UNL1        0.0259
     27 C         141.7610  142.0620  168.0791 C.3     1  UNL1        0.0937
     28 N         141.0718  141.6943  169.3595 N.am    1  UNL1       -0.2795
     29 C         141.5547  142.2625  170.6611 C.2     1  UNL1        0.2261
     30 C         142.7267  143.1984  170.6820 C.3     1  UNL1        0.0948
     31 O         140.8655  141.8948  171.9417 O.2     1  UNL1       -0.2749
     32 C         139.8998  140.7583  169.3386 C.3     1  UNL1        0.0937
     33 C         139.4170  140.1901  168.0371 C.3     1  UNL1        0.0259
     34 C         142.0920  137.5994  162.2246 C.3     1  UNL1        0.2525
     35 O         140.7291  137.2868  162.7675 O.3     1  UNL1       -0.4702
@<TRIPOS>BOND
     1    34    35    1
     2    35    19    1
     3    19    20   ar
     4    20    21   ar
     5    21    25    1
     6    25    26    1
     7    26    27    1
     8    27    28    1
     9    28    29   am
    10    29    30    1
    11    29    31    2
    12    28    32    1
    13    32    33    1
    14    21    22   ar
    15    22    23   ar
    16    23    24   ar
    17    24     1    1
    18     1     3    1
    19     3     4   ar
    20     4     5   ar
    21     5     6   ar
    22     6     7    1
    23     6     8   ar
    24     8    10    1
    25    10    11   ar
    26    11    12   ar
    27    12    13   ar
    28    13    14   ar
    29    14    15   ar
    30    15    16   ar
    31    16    17   ar
    32    17    18   ar
    33     8     9   ar
    34    24    19   ar
    35     9     3   ar
    36    33    25    1
    37    18    10   ar
    38    18    13   ar
    39     1     2    1
@<TRIPOS>MOLECULE
*****
 35 39 0 0 0
SMALL
GASTEIGER

@<TRIPOS>ATOM
      1 N         140.8130  145.7914  161.1225 N.pl3   1  UNL1       -0.2802
      2 H         140.6065  146.7519  161.1858 H       1  UNL1        0.1552
      3 C         141.0215  145.1561  159.7797 C.ar    1  UNL1        0.2208
      4 N         142.3753  144.6347  159.3987 N.ar    1  UNL1       -0.2111
      5 C         142.5837  143.9994  158.0560 C.ar    1  UNL1        0.1147
      6 C         141.4383  143.8855  157.0942 C.ar    1  UNL1        0.0960
      7 CL        141.6467  143.2502  155.7515 Cl      1  UNL1       -0.0790
      8 C         140.0843  144.4070  157.4753 C.ar    1  UNL1        0.1138
      9 N         139.8760  145.0422  158.8180 N.ar    1  UNL1       -0.2111
     10 C         138.9389  144.2931  156.5135 C.ar    1  UNL1        0.1031
     11 C         138.5693  145.2948  155.4600 C.ar    1  UNL1        0.1196
     12 N         137.3639  144.7783  154.7318 N.ar    1  UNL1       -0.2248
     13 C         136.9885  143.4574  155.3353 C.ar    1  UNL1        0.1479
     14 C         135.8861  142.4889  155.0244 C.ar    1  UNL1        0.0374
     15 C         135.7571  141.2205  155.8146 C.ar    1  UNL1        0.0046
     16 C         136.7305  140.9206  156.9158 C.ar    1  UNL1        0.0191
     17 C         137.8329  141.8891  157.2267 C.ar    1  UNL1        0.0815
     18 N         137.9619  143.1575  156.4365 N.ar    1  UNL1       -0.2874
     19 C         139.7797  144.0798  162.7816 C.ar    1  UNL1        0.1517
     20 C         139.8861  143.2517  164.0279 C.ar    1  UNL1        0.0339
     21 C         141.1321  143.3072  164.8611 C.ar    1  UNL1       -0.0193
     22 C         142.2718  144.1907  164.4481 C.ar    1  UNL1       -0.0028
     23 C         142.1654  145.0187  163.2019 C.ar    1  UNL1        0.0174
     24 C         140.9194  144.9633  162.3686 C.ar    1  UNL1        0.0849
     25 C         141.2385  142.4791  166.1073 C.3     1  UNL1        0.0258
     26 C         142.5773  142.2509  166.7441 C.3     1  UNL1        0.0259
     27 C         142.6837  141.4228  167.9903 C.3     1  UNL1        0.0937
     28 N         141.4513  140.8230  168.5996 N.am    1  UNL1       -0.2795
     29 C         141.5576  139.9949  169.8459 C.2     1  UNL1        0.2261
     30 C         142.8964  139.7667  170.4827 C.3     1  UNL1        0.0948
     31 O         140.3252  139.3951  170.4552 O.2     1  UNL1       -0.2749
     32 C         140.1125  141.0512  167.9628 C.3     1  UNL1        0.0937
     33 C         140.0060  141.8793  166.7166 C.3     1  UNL1        0.0259
     34 C         138.2050  142.7835  161.1722 C.3     1  UNL1        0.2525
     35 O         138.5336  144.0243  161.9484 O.3     1  UNL1       -0.4702
@<TRIPOS>BOND
     1    34    35    1
     2    35    19    1
     3    19    20   ar
     4    20    21   ar
     5    21    25    1
     6    25    26    1
     7    26    27    1
     8    27    28    1
     9    28    29   am
    10    29    30    1
    11    29    31    2
    12    28    32    1
    13    32    33    1
    14    21    22   ar
    15    22    23   ar
    16    23    24   ar
    17    24     1    1
    18     1     3    1
    19     3     4   ar
    20     4     5   ar
    21     5     6   ar
    22     6     7    1
    23     6     8   ar
    24     8    10    1
    25    10    11   ar
    26    11    12   ar
    27    12    13   ar
    28    13    14   ar
    29    14    15   ar
    30    15    16   ar
    31    16    17   ar
    32    17    18   ar
    33     8     9   ar
    34    24    19   ar
    35     9     3   ar
    36    33    25    1
    37    18    10   ar
    38    18    13   ar
    39     1     2    1
@<TRIPOS>MOLECULE
*****
 35 39 0 0 0
SMALL
GASTEIGER

@<TRIPOS>ATOM
      1 N         143.3543  137.5133  161.2914 N.pl3   1  UNL1       -0.2802
      2 H         143.7490  136.6122  161.2540 H       1  UNL1        0.1552
      3 C         143.1059  138.2766  160.0243 C.ar    1  UNL1        0.2208
      4 N         143.0084  137.5480  158.7168 N.ar    1  UNL1       -0.2111
      5 C         142.7601  138.3113  157.4496 C.ar    1  UNL1        0.1147
      6 C         142.6092  139.8031  157.4899 C.ar    1  UNL1        0.0960
      7 CL        142.3609  140.5664  156.2228 Cl      1  UNL1       -0.0790
      8 C         142.7068  140.5317  158.7976 C.ar    1  UNL1        0.1138
      9 N         142.9551  139.7684  160.0646 N.ar    1  UNL1       -0.2111
     10 C         142.5559  142.0236  158.8379 C.ar    1  UNL1        0.1031
     11 C         143.3723  143.0136  158.0612 C.ar    1  UNL1        0.1196
     12 N         142.8831  144.3892  158.4054 N.ar    1  UNL1       -0.2248
     13 C         141.7644  144.2493  159.3948 C.ar    1  UNL1        0.1479
     14 C         140.9038  145.2644  160.0868 C.ar    1  UNL1        0.0374
     15 C         139.8409  144.8174  161.0461 C.ar    1  UNL1        0.0046
     16 C         139.6387  143.3553  161.3135 C.ar    1  UNL1        0.0191
     17 C         140.4993  142.3403  160.6215 C.ar    1  UNL1        0.0815
     18 N         141.5622  142.7873  159.6621 N.ar    1  UNL1       -0.2874
     19 C         141.6116  137.9781  163.1615 C.ar    1  UNL1        0.1517
     20 C         141.2587  138.5878  164.4859 C.ar    1  UNL1        0.0339
     21 C         142.2954  139.3423  165.2643 C.ar    1  UNL1       -0.0193
     22 C         143.6850  139.4871  164.7185 C.ar    1  UNL1       -0.0028
     23 C         144.0379  138.8774  163.3942 C.ar    1  UNL1        0.0174
     24 C         143.0013  138.1229  162.6157 C.ar    1  UNL1        0.0849
     25 C         141.9424  139.9519  166.5886 C.3     1  UNL1        0.0258
     26 C         140.8416  140.9671  166.6773 C.3     1  UNL1        0.0259
     27 C         140.4886  141.5768  168.0016 C.3     1  UNL1        0.0937
     28 N         141.2362  141.1713  169.2370 N.am    1  UNL1       -0.2795
     29 C         140.8832  141.7809  170.5614 C.2     1  UNL1        0.2261
     30 C         139.7825  142.7961  170.6501 C.3     1  UNL1        0.0948
     31 O         141.6309  141.3755  171.7969 O.2     1  UNL1       -0.2749
     32 C         142.3370  140.1561  169.1484 C.3     1  UNL1        0.0937
     33 C         142.6900  139.5464  167.8241 C.3     1  UNL1        0.0259
     34 C         139.3035  137.9046  161.9710 C.3     1  UNL1        0.2525
     35 O         140.5749  137.2236  162.3831 O.3     1  UNL1       -0.4702
@<TRIPOS>BOND
     1    34    35    1
     2    35    19    1
     3    19    20   ar
     4    20    21   ar
     5    21    25    1
     6    25    26    1
     7    26    27    1
     8    27    28    1
     9    28    29   am
    10    29    30    1
    11    29    31    2
    12    28    32    1
    13    32    33    1
    14    21    22   ar
    15    22    23   ar
    16    23    24   ar
    17    24     1    1
    18     1     3    1
    19     3     4   ar
    20     4     5   ar
    21     5     6   ar
    22     6     7    1
    23     6     8   ar
    24     8    10    1
    25    10    11   ar
    26    11    12   ar
    27    12    13   ar
    28    13    14   ar
    29    14    15   ar
    30    15    16   ar
    31    16    17   ar
    32    17    18   ar
    33     8     9   ar
    34    24    19   ar
    35     9     3   ar
    36    33    25    1
    37    18    10   ar
    38    18    13   ar
    39     1     2    1
@<TRIPOS>MOLECULE
*****
 35 39 0 0 0
SMALL
GASTEIGER

@<TRIPOS>ATOM
      1 N         137.4919  139.2117  161.1774 N.pl3   1  UNL1       -0.2802
      2 H         136.6242  138.7557  161.0851 H       1  UNL1        0.1552
      3 C         138.2820  139.5748  159.9551 C.ar    1  UNL1        0.2208
      4 N         138.0324  140.8812  159.2615 N.ar    1  UNL1       -0.2111
      5 C         138.8225  141.2443  158.0393 C.ar    1  UNL1        0.1147
      6 C         139.8622  140.3010  157.5107 C.ar    1  UNL1        0.0960
      7 CL        140.6523  140.6641  156.2884 Cl      1  UNL1       -0.0790
      8 C         140.1117  138.9946  158.2043 C.ar    1  UNL1        0.1138
      9 N         139.3216  138.6315  159.4265 N.ar    1  UNL1       -0.2111
     10 C         141.1513  138.0513  157.6757 C.ar    1  UNL1        0.1031
     11 C         142.4680  137.7381  158.3223 C.ar    1  UNL1        0.1196
     12 N         143.1872  136.7488  157.4538 N.ar    1  UNL1       -0.2248
     13 C         142.3149  136.4507  156.2705 C.ar    1  UNL1        0.1479
     14 C         142.5038  135.5502  155.0859 C.ar    1  UNL1        0.0374
     15 C         141.4345  135.4547  154.0384 C.ar    1  UNL1        0.0046
     16 C         140.1762  136.2596  154.1755 C.ar    1  UNL1        0.0191
     17 C         139.9873  137.1601  155.3601 C.ar    1  UNL1        0.0815
     18 N         141.0566  137.2556  156.4076 N.ar    1  UNL1       -0.2874
     19 C         137.9314  140.9474  163.0599 C.ar    1  UNL1        0.1517
     20 C         138.4632  141.2791  164.4228 C.ar    1  UNL1        0.0339
     21 C         139.0871  140.2067  165.2658 C.ar    1  UNL1       -0.0193
     22 C         139.1793  138.8027  164.7460 C.ar    1  UNL1       -0.0028
     23 C         138.6476  138.4710  163.3832 C.ar    1  UNL1        0.0174
     24 C         138.0236  139.5434  162.5401 C.ar    1  UNL1        0.0849
     25 C         139.6189  140.5384  166.6286 C.3     1  UNL1        0.0258
     26 C         140.7011  141.5656  166.7817 C.3     1  UNL1        0.0259
     27 C         141.2330  141.8974  168.1445 C.3     1  UNL1        0.0937
     28 N         140.6825  141.2019  169.3541 N.am    1  UNL1       -0.2795
     29 C         141.2142  141.5336  170.7169 C.2     1  UNL1        0.2261
     30 C         142.2965  142.5609  170.8700 C.3     1  UNL1        0.0948
     31 O         140.6637  140.8381  171.9266 O.2     1  UNL1       -0.2749
     32 C         139.6002  140.1747  169.2010 C.3     1  UNL1        0.0937
     33 C         139.0684  139.8429  167.8382 C.3     1  UNL1        0.0259
     34 C         137.8598  143.4141  162.2473 C.3     1  UNL1        0.2525
     35 O         137.3074  142.0198  162.2169 O.3     1  UNL1       -0.4702
@<TRIPOS>BOND
     1    34    35    1
     2    35    19    1
     3    19    20   ar
     4    20    21   ar
     5    21    25    1
     6    25    26    1
     7    26    27    1
     8    27    28    1
     9    28    29   am
    10    29    30    1
    11    29    31    2
    12    28    32    1
    13    32    33    1
    14    21    22   ar
    15    22    23   ar
    16    23    24   ar
    17    24     1    1
    18     1     3    1
    19     3     4   ar
    20     4     5   ar
    21     5     6   ar
    22     6     7    1
    23     6     8   ar
    24     8    10    1
    25    10    11   ar
    26    11    12   ar
    27    12    13   ar
    28    13    14   ar
    29    14    15   ar
    30    15    16   ar
    31    16    17   ar
    32    17    18   ar
    33     8     9   ar
    34    24    19   ar
    35     9     3   ar
    36    33    25    1
    37    18    10   ar
    38    18    13   ar
    39     1     2    1
@<TRIPOS>MOLECULE
*****
 35 39 0 0 0
SMALL
GASTEIGER

@<TRIPOS>ATOM
      1 N         140.7520  145.8405  161.3623 N.pl3   1  UNL1       -0.2802
      2 H         140.9313  146.8080  161.3938 H       1  UNL1        0.1552
      3 C         140.3646  145.1912  160.0668 C.ar    1  UNL1        0.2208
      4 N         139.9822  143.7410  160.0396 N.ar    1  UNL1       -0.2111
      5 C         139.5948  143.0918  158.7441 C.ar    1  UNL1        0.1147
      6 C         139.5898  143.8927  157.4758 C.ar    1  UNL1        0.0960
      7 CL        139.2024  143.2434  156.1803 Cl      1  UNL1       -0.0790
      8 C         139.9722  145.3429  157.5031 C.ar    1  UNL1        0.1138
      9 N         140.3596  145.9921  158.7985 N.ar    1  UNL1       -0.2111
     10 C         139.9672  146.1439  156.2348 C.ar    1  UNL1        0.1031
     11 C         138.9808  147.2141  155.8717 C.ar    1  UNL1        0.1196
     12 N         139.3517  147.7468  154.5195 N.ar    1  UNL1       -0.2248
     13 C         140.5673  147.0058  154.0467 C.ar    1  UNL1        0.1479
     14 C         141.3769  147.1052  152.7879 C.ar    1  UNL1        0.0374
     15 C         142.5668  146.2139  152.5893 C.ar    1  UNL1        0.0046
     16 C         142.9472  145.2232  153.6494 C.ar    1  UNL1        0.0191
     17 C         142.1376  145.1238  154.9082 C.ar    1  UNL1        0.0815
     18 N         140.9476  146.0151  155.1069 N.ar    1  UNL1       -0.2874
     19 C         142.1578  144.3269  162.9381 C.ar    1  UNL1        0.1517
     20 C         142.2720  143.5020  164.1858 C.ar    1  UNL1        0.0339
     21 C         141.0947  143.3660  165.1053 C.ar    1  UNL1       -0.0193
     22 C         139.8032  144.0548  164.7772 C.ar    1  UNL1       -0.0028
     23 C         139.6890  144.8796  163.5296 C.ar    1  UNL1        0.0174
     24 C         140.8663  145.0157  162.6099 C.ar    1  UNL1        0.0849
     25 C         141.2090  142.5412  166.3529 C.3     1  UNL1        0.0258
     26 C         142.1624  141.3843  166.4024 C.3     1  UNL1        0.0259
     27 C         142.2768  140.5594  167.6500 C.3     1  UNL1        0.0937
     28 N         141.4377  140.8915  168.8481 N.am    1  UNL1       -0.2795
     29 C         141.5520  140.0667  170.0958 C.2     1  UNL1        0.2261
     30 C         142.5054  138.9097  170.1452 C.3     1  UNL1        0.0948
     31 O         140.7129  140.3987  171.2940 O.2     1  UNL1       -0.2749
     32 C         140.4843  142.0484  168.7987 C.3     1  UNL1        0.0937
     33 C         140.3699  142.8733  167.5511 C.3     1  UNL1        0.0259
     34 C         144.4315  143.4397  162.0476 C.3     1  UNL1        0.2525
     35 O         143.3350  144.4629  162.0185 O.3     1  UNL1       -0.4702
@<TRIPOS>BOND
     1    34    35    1
     2    35    19    1
     3    19    20   ar
     4    20    21   ar
     5    21    25    1
     6    25    26    1
     7    26    27    1
     8    27    28    1
     9    28    29   am
    10    29    30    1
    11    29    31    2
    12    28    32    1
    13    32    33    1
    14    21    22   ar
    15    22    23   ar
    16    23    24   ar
    17    24     1    1
    18     1     3    1
    19     3     4   ar
    20     4     5   ar
    21     5     6   ar
    22     6     7    1
    23     6     8   ar
    24     8    10    1
    25    10    11   ar
    26    11    12   ar
    27    12    13   ar
    28    13    14   ar
    29    14    15   ar
    30    15    16   ar
    31    16    17   ar
    32    17    18   ar
    33     8     9   ar
    34    24    19   ar
    35     9     3   ar
    36    33    25    1
    37    18    10   ar
    38    18    13   ar
    39     1     2    1
