@<TRIPOS>MOLECULE
*****
 24 27 0 0 0
SMALL
GASTEIGER

@<TRIPOS>ATOM
      1 C         140.8892  138.5069  162.2396 C.ar    1  UNL1        0.1917
      2 N         139.6897  137.6422  161.9875 N.ar    1  UNL1       -0.1268
      3 N         138.8637  137.6192  163.2394 N.ar    1  UNL1       -0.1315
      4 C         139.5527  138.4696  164.2651 C.ar    1  UNL1        0.1636
      5 N         140.8046  139.0182  163.6472 N.ar    1  UNL1       -0.2939
      6 C         141.7056  139.9125  164.4461 C.3     1  UNL1        0.1302
      7 C         141.3548  140.2582  165.8629 C.3     1  UNL1        0.1186
      8 N         140.1030  139.7095  166.4808 N.am    1  UNL1       -0.2670
      9 C         139.7522  140.0552  167.8977 C.2     1  UNL1        0.2494
     10 O         138.5004  139.5065  168.5157 O.2     1  UNL1       -0.2699
     11 C         139.2019  138.8152  165.6819 C.3     1  UNL1        0.1599
     12 C         140.6533  140.9495  168.6966 C.ar    1  UNL1        0.0537
     13 C         141.8583  140.3792  169.3842 C.ar    1  UNL1        0.0068
     14 C         142.7593  141.2736  170.1831 C.ar    1  UNL1        0.0298
     15 C         142.4554  142.7382  170.2944 C.ar    1  UNL1        0.1401
     16 F         143.3565  143.6325  171.0933 F       1  UNL1       -0.2042
     17 C         141.2504  143.3085  169.6069 C.ar    1  UNL1        0.0298
     18 C         140.3494  142.4142  168.8080 C.ar    1  UNL1        0.0068
     19 C         143.5968  140.6323  158.2354 C.3     1  UNL1        0.0744
     20 C         143.2261  139.7844  159.4161 C.ar    1  UNL1        0.1481
     21 N         144.0992  138.7558  160.0717 N.ar    1  UNL1       -0.1929
     22 S         143.3300  138.1521  161.2091 S.2     1  UNL1        0.0369
     23 C         141.9817  138.8075  161.2566 C.ar    1  UNL1        0.1652
     24 N         141.9174  139.8164  160.1484 N.ar    1  UNL1       -0.2190
@<TRIPOS>BOND
     1    19    20    1
     2    20    21   ar
     3    21    22   ar
     4    22    23   ar
     5    23     1    1
     6     1     2   ar
     7     2     3   ar
     8     3     4   ar
     9     4     5   ar
    10     5     6    1
    11     6     7    1
    12     7     8    1
    13     8     9   am
    14     9    10    2
    15     9    12    1
    16    12    13   ar
    17    13    14   ar
    18    14    15   ar
    19    15    16    1
    20    15    17   ar
    21    17    18   ar
    22     8    11    1
    23    23    24   ar
    24    24    20   ar
    25     5     1   ar
    26    18    12   ar
    27    11     4    1
@<TRIPOS>MOLECULE
*****
 24 27 0 0 0
SMALL
GASTEIGER

@<TRIPOS>ATOM
      1 C         138.7902  142.2688  161.9063 C.ar    1  UNL1        0.1917
      2 N         137.7850  141.2080  161.5679 N.ar    1  UNL1       -0.1268
      3 N         137.5780  140.3598  162.7875 N.ar    1  UNL1       -0.1315
      4 C         138.4551  140.8962  163.8797 C.ar    1  UNL1        0.1636
      5 N         139.2043  142.0760  163.3351 N.ar    1  UNL1       -0.2939
      6 C         140.1668  142.8225  164.2105 C.3     1  UNL1        0.1302
      7 C         140.3801  142.3890  165.6305 C.3     1  UNL1        0.1186
      8 N         139.6309  141.2092  166.1752 N.am    1  UNL1       -0.2670
      9 C         139.8443  140.7757  167.5953 C.2     1  UNL1        0.2494
     10 O         139.0951  139.5959  168.1399 O.2     1  UNL1       -0.2699
     11 C         138.6684  140.4628  165.2998 C.3     1  UNL1        0.1599
     12 C         140.8068  141.5221  168.4707 C.ar    1  UNL1        0.0537
     13 C         140.3551  142.7486  169.2067 C.ar    1  UNL1        0.0068
     14 C         141.3177  143.4950  170.0822 C.ar    1  UNL1        0.0298
     15 C         142.7319  143.0150  170.2216 C.ar    1  UNL1        0.1401
     16 F         143.6944  143.7614  171.0970 F       1  UNL1       -0.2042
     17 C         143.1836  141.7885  169.4856 C.ar    1  UNL1        0.0298
     18 C         142.2211  141.0421  168.6102 C.ar    1  UNL1        0.0068
     19 C         140.3343  144.8093  157.5425 C.3     1  UNL1        0.0744
     20 C         140.0027  144.5028  158.9730 C.ar    1  UNL1        0.1481
     21 N         140.1306  145.4489  160.1299 N.ar    1  UNL1       -0.1929
     22 S         139.6919  144.7271  161.3695 S.2     1  UNL1        0.0369
     23 C         139.2930  143.3350  160.9788 C.ar    1  UNL1        0.1652
     24 N         139.4850  143.1963  159.4976 N.ar    1  UNL1       -0.2190
@<TRIPOS>BOND
     1    19    20    1
     2    20    21   ar
     3    21    22   ar
     4    22    23   ar
     5    23     1    1
     6     1     2   ar
     7     2     3   ar
     8     3     4   ar
     9     4     5   ar
    10     5     6    1
    11     6     7    1
    12     7     8    1
    13     8     9   am
    14     9    10    2
    15     9    12    1
    16    12    13   ar
    17    13    14   ar
    18    14    15   ar
    19    15    16    1
    20    15    17   ar
    21    17    18   ar
    22     8    11    1
    23    23    24   ar
    24    24    20   ar
    25     5     1   ar
    26    18    12   ar
    27    11     4    1
@<TRIPOS>MOLECULE
*****
 24 27 0 0 0
SMALL
GASTEIGER

@<TRIPOS>ATOM
      1 C         139.8820  140.3235  168.4185 C.ar    1  UNL1        0.1917
      2 N         138.6233  139.7075  168.9534 N.ar    1  UNL1       -0.1268
      3 N         137.9634  138.9563  167.8352 N.ar    1  UNL1       -0.1315
      4 C         138.8143  139.1080  166.6093 C.ar    1  UNL1        0.1636
      5 N         140.0001  139.9530  166.9698 N.ar    1  UNL1       -0.2939
      6 C         141.0342  140.2759  165.9323 C.3     1  UNL1        0.1302
      7 C         140.8824  139.7538  164.5343 C.3     1  UNL1        0.1186
      8 N         139.6967  138.9088  164.1738 N.am    1  UNL1       -0.2670
      9 C         139.5450  138.3868  162.7758 C.2     1  UNL1        0.2494
     10 O         138.3592  137.5418  162.4153 O.2     1  UNL1       -0.2699
     11 C         138.6626  138.5860  165.2113 C.3     1  UNL1        0.1599
     12 C         140.5790  138.7097  161.7383 C.ar    1  UNL1        0.0537
     13 C         140.4306  139.9363  160.8878 C.ar    1  UNL1        0.0068
     14 C         141.4648  140.2592  159.8502 C.ar    1  UNL1        0.0298
     15 C         142.6472  139.3554  159.6633 C.ar    1  UNL1        0.1401
     16 F         143.6813  139.6783  158.6258 F       1  UNL1       -0.2042
     17 C         142.7956  138.1288  160.5137 C.ar    1  UNL1        0.0298
     18 C         141.7615  137.8059  161.5512 C.ar    1  UNL1        0.0068
     19 C         144.3375  142.6521  170.0333 C.3     1  UNL1        0.0744
     20 C         142.9003  142.2330  169.9381 C.ar    1  UNL1        0.1481
     21 N         141.7910  142.6749  170.8460 N.ar    1  UNL1       -0.1929
     22 S         140.5253  142.0133  170.3871 S.2     1  UNL1        0.0369
     23 C         140.8524  141.1626  169.1958 C.ar    1  UNL1        0.1652
     24 N         142.3202  141.2984  168.9183 N.ar    1  UNL1       -0.2190
@<TRIPOS>BOND
     1    19    20    1
     2    20    21   ar
     3    21    22   ar
     4    22    23   ar
     5    23     1    1
     6     1     2   ar
     7     2     3   ar
     8     3     4   ar
     9     4     5   ar
    10     5     6    1
    11     6     7    1
    12     7     8    1
    13     8     9   am
    14     9    10    2
    15     9    12    1
    16    12    13   ar
    17    13    14   ar
    18    14    15   ar
    19    15    16    1
    20    15    17   ar
    21    17    18   ar
    22     8    11    1
    23    23    24   ar
    24    24    20   ar
    25     5     1   ar
    26    18    12   ar
    27    11     4    1
@<TRIPOS>MOLECULE
*****
 24 27 0 0 0
SMALL
GASTEIGER

@<TRIPOS>ATOM
      1 C         143.2491  140.8556  161.9597 C.ar    1  UNL1        0.1917
      2 N         144.1429  139.6887  161.6606 N.ar    1  UNL1       -0.1268
      3 N         144.3638  138.9346  162.9383 N.ar    1  UNL1       -0.1315
      4 C         143.6065  139.6354  164.0270 C.ar    1  UNL1        0.1636
      5 N         142.9176  140.8226  163.4222 N.ar    1  UNL1       -0.2939
      6 C         142.0774  141.7203  164.2814 C.3     1  UNL1        0.1302
      7 C         141.9261  141.4308  165.7453 C.3     1  UNL1        0.1186
      8 N         142.6151  140.2435  166.3502 N.am    1  UNL1       -0.2670
      9 C         142.4638  139.9540  167.8142 C.2     1  UNL1        0.2494
     10 O         143.1528  138.7668  168.4190 O.2     1  UNL1       -0.2699
     11 C         143.4553  139.3459  165.4910 C.3     1  UNL1        0.1599
     12 C         141.6236  140.8517  168.6734 C.ar    1  UNL1        0.0537
     13 C         140.2448  140.4243  169.0809 C.ar    1  UNL1        0.0068
     14 C         139.4045  141.3221  169.9401 C.ar    1  UNL1        0.0298
     15 C         139.9432  142.6472  170.3917 C.ar    1  UNL1        0.1401
     16 F         139.1030  143.5448  171.2508 F       1  UNL1       -0.2042
     17 C         141.3221  143.0745  169.9841 C.ar    1  UNL1        0.0298
     18 C         142.1623  142.1769  169.1250 C.ar    1  UNL1        0.0068
     19 C         140.6233  143.1739  158.0085 C.3     1  UNL1        0.0744
     20 C         141.5638  142.9418  159.1539 C.ar    1  UNL1        0.1481
     21 N         142.5053  143.9517  159.7402 N.ar    1  UNL1       -0.1929
     22 S         143.2511  143.2930  160.8626 S.2     1  UNL1        0.0369
     23 C         142.7707  141.8762  160.9700 C.ar    1  UNL1        0.1652
     24 N         141.7278  141.6591  159.9139 N.ar    1  UNL1       -0.2190
@<TRIPOS>BOND
     1    19    20    1
     2    20    21   ar
     3    21    22   ar
     4    22    23   ar
     5    23     1    1
     6     1     2   ar
     7     2     3   ar
     8     3     4   ar
     9     4     5   ar
    10     5     6    1
    11     6     7    1
    12     7     8    1
    13     8     9   am
    14     9    10    2
    15     9    12    1
    16    12    13   ar
    17    13    14   ar
    18    14    15   ar
    19    15    16    1
    20    15    17   ar
    21    17    18   ar
    22     8    11    1
    23    23    24   ar
    24    24    20   ar
    25     5     1   ar
    26    18    12   ar
    27    11     4    1
@<TRIPOS>MOLECULE
*****
 24 27 0 0 0
SMALL
GASTEIGER

@<TRIPOS>ATOM
      1 C         142.6534  143.3735  160.7160 C.ar    1  UNL1        0.1917
      2 N         144.1384  143.2677  160.5329 N.ar    1  UNL1       -0.1268
      3 N         144.6483  142.2197  161.4772 N.ar    1  UNL1       -0.1315
      4 C         143.4785  141.6778  162.2439 C.ar    1  UNL1        0.1636
      5 N         142.2455  142.3909  161.7734 N.ar    1  UNL1       -0.2939
      6 C         140.9107  142.0534  162.3687 C.3     1  UNL1        0.1302
      7 C         140.8089  141.0028  163.4344 C.3     1  UNL1        0.1186
      8 N         142.0418  140.2897  163.9049 N.am    1  UNL1       -0.2670
      9 C         141.9399  139.2390  164.9706 C.2     1  UNL1        0.2494
     10 O         143.1729  138.5259  165.4411 O.2     1  UNL1       -0.2699
     11 C         143.3766  140.6272  163.3096 C.3     1  UNL1        0.1599
     12 C         140.6052  138.9015  165.5659 C.ar    1  UNL1        0.0537
     13 C         139.8019  137.7634  165.0094 C.ar    1  UNL1        0.0068
     14 C         138.4671  137.4260  165.6048 C.ar    1  UNL1        0.0298
     15 C         137.9355  138.2265  166.7565 C.ar    1  UNL1        0.1401
     16 F         136.6007  137.8890  167.3518 F       1  UNL1       -0.2042
     17 C         138.7387  139.3646  167.3129 C.ar    1  UNL1        0.0298
     18 C         140.0735  139.7021  166.7177 C.ar    1  UNL1        0.0068
     19 C         140.4054  146.1762  156.8465 C.3     1  UNL1        0.0744
     20 C         140.7038  145.5876  158.1937 C.ar    1  UNL1        0.1481
     21 N         139.9503  145.8606  159.4616 N.ar    1  UNL1       -0.1929
     22 S         140.5890  145.0643  160.5608 S.2     1  UNL1        0.0369
     23 C         141.7371  144.2993  159.9722 C.ar    1  UNL1        0.1652
     24 N         141.8081  144.6227  158.5092 N.ar    1  UNL1       -0.2190
@<TRIPOS>BOND
     1    19    20    1
     2    20    21   ar
     3    21    22   ar
     4    22    23   ar
     5    23     1    1
     6     1     2   ar
     7     2     3   ar
     8     3     4   ar
     9     4     5   ar
    10     5     6    1
    11     6     7    1
    12     7     8    1
    13     8     9   am
    14     9    10    2
    15     9    12    1
    16    12    13   ar
    17    13    14   ar
    18    14    15   ar
    19    15    16    1
    20    15    17   ar
    21    17    18   ar
    22     8    11    1
    23    23    24   ar
    24    24    20   ar
    25     5     1   ar
    26    18    12   ar
    27    11     4    1
@<TRIPOS>MOLECULE
*****
 24 27 0 0 0
SMALL
GASTEIGER

@<TRIPOS>ATOM
      1 C         139.8515  138.7586  157.9290 C.ar    1  UNL1        0.1917
      2 N         138.8186  139.3797  157.0361 N.ar    1  UNL1       -0.1268
      3 N         137.8921  140.1903  157.8930 N.ar    1  UNL1       -0.1315
      4 C         138.3523  140.0703  159.3156 C.ar    1  UNL1        0.1636
      5 N         139.5633  139.1854  159.3379 N.ar    1  UNL1       -0.2939
      6 C         140.2472  138.8826  160.6381 C.3     1  UNL1        0.1302
      7 C         139.7201  139.4648  161.9161 C.3     1  UNL1        0.1186
      8 N         138.5091  140.3496  161.8938 N.am    1  UNL1       -0.2670
      9 C         137.9820  140.9317  163.1719 C.2     1  UNL1        0.2494
     10 O         136.7710  141.8166  163.1496 O.2     1  UNL1       -0.2699
     11 C         137.8252  140.6524  160.5936 C.3     1  UNL1        0.1599
     12 C         138.6658  140.6290  164.4721 C.ar    1  UNL1        0.0537
     13 C         139.8290  141.4635  164.9199 C.ar    1  UNL1        0.0068
     14 C         140.5129  141.1607  166.2202 C.ar    1  UNL1        0.0298
     15 C         140.0336  140.0234  167.0726 C.ar    1  UNL1        0.1401
     16 F         140.7175  139.7206  168.3728 F       1  UNL1       -0.2042
     17 C         138.8704  139.1888  166.6248 C.ar    1  UNL1        0.0298
     18 C         138.1865  139.4916  165.3246 C.ar    1  UNL1        0.0068
     19 C         142.5852  134.9525  155.4957 C.3     1  UNL1        0.0744
     20 C         142.2318  136.1177  156.3718 C.ar    1  UNL1        0.1481
     21 N         143.1772  136.8731  157.2581 N.ar    1  UNL1       -0.1929
     22 S         142.4005  137.9543  157.9493 S.2     1  UNL1        0.0369
     23 C         140.9752  137.8672  157.4902 C.ar    1  UNL1        0.1652
     24 N         140.8709  136.7321  156.5152 N.ar    1  UNL1       -0.2190
@<TRIPOS>BOND
     1    19    20    1
     2    20    21   ar
     3    21    22   ar
     4    22    23   ar
     5    23     1    1
     6     1     2   ar
     7     2     3   ar
     8     3     4   ar
     9     4     5   ar
    10     5     6    1
    11     6     7    1
    12     7     8    1
    13     8     9   am
    14     9    10    2
    15     9    12    1
    16    12    13   ar
    17    13    14   ar
    18    14    15   ar
    19    15    16    1
    20    15    17   ar
    21    17    18   ar
    22     8    11    1
    23    23    24   ar
    24    24    20   ar
    25     5     1   ar
    26    18    12   ar
    27    11     4    1
@<TRIPOS>MOLECULE
*****
 24 27 0 0 0
SMALL
GASTEIGER

@<TRIPOS>ATOM
      1 C         141.1756  139.4129  161.5208 C.ar    1  UNL1        0.1917
      2 N         142.2043  138.3897  161.1401 N.ar    1  UNL1       -0.1268
      3 N         142.9391  137.9863  162.3840 N.ar    1  UNL1       -0.1315
      4 C         142.3645  138.7601  163.5334 C.ar    1  UNL1        0.1636
      5 N         141.2746  139.6418  162.9999 N.ar    1  UNL1       -0.2939
      6 C         140.5131  140.5391  163.9298 C.3     1  UNL1        0.1302
      7 C         140.8415  140.5548  165.3933 C.3     1  UNL1        0.1186
      8 N         141.9315  139.6732  165.9269 N.am    1  UNL1       -0.2670
      9 C         142.2599  139.6889  167.3904 C.2     1  UNL1        0.2494
     10 O         143.3499  138.8073  167.9240 O.2     1  UNL1       -0.2699
     11 C         142.6930  138.7758  164.9969 C.3     1  UNL1        0.1599
     12 C         141.4984  140.5863  168.3204 C.ar    1  UNL1        0.0537
     13 C         140.2577  140.0848  168.9980 C.ar    1  UNL1        0.0068
     14 C         139.4962  140.9823  169.9280 C.ar    1  UNL1        0.0298
     15 C         139.9754  142.3811  170.1803 C.ar    1  UNL1        0.1401
     16 F         139.2139  143.2784  171.1102 F       1  UNL1       -0.2042
     17 C         141.2161  142.8825  169.5026 C.ar    1  UNL1        0.0298
     18 C         141.9776  141.9852  168.5727 C.ar    1  UNL1        0.0068
     19 C         138.9281  142.9906  158.3537 C.3     1  UNL1        0.0744
     20 C         139.1832  141.7330  159.1306 C.ar    1  UNL1        0.1481
     21 N         138.2967  140.5234  159.1661 N.ar    1  UNL1       -0.1929
     22 S         138.9352  139.5071  160.0658 S.2     1  UNL1        0.0369
     23 C         140.2162  140.0885  160.5863 C.ar    1  UNL1        0.1652
     24 N         140.3695  141.4641  160.0083 N.ar    1  UNL1       -0.2190
@<TRIPOS>BOND
     1    19    20    1
     2    20    21   ar
     3    21    22   ar
     4    22    23   ar
     5    23     1    1
     6     1     2   ar
     7     2     3   ar
     8     3     4   ar
     9     4     5   ar
    10     5     6    1
    11     6     7    1
    12     7     8    1
    13     8     9   am
    14     9    10    2
    15     9    12    1
    16    12    13   ar
    17    13    14   ar
    18    14    15   ar
    19    15    16    1
    20    15    17   ar
    21    17    18   ar
    22     8    11    1
    23    23    24   ar
    24    24    20   ar
    25     5     1   ar
    26    18    12   ar
    27    11     4    1
@<TRIPOS>MOLECULE
*****
 24 27 0 0 0
SMALL
GASTEIGER

@<TRIPOS>ATOM
      1 C         139.5561  139.9966  167.6385 C.ar    1  UNL1        0.1917
      2 N         138.3909  139.0876  167.8955 N.ar    1  UNL1       -0.1268
      3 N         137.6496  138.9079  166.6039 N.ar    1  UNL1       -0.1315
      4 C         138.3567  139.7057  165.5487 C.ar    1  UNL1        0.1636
      5 N         139.5350  140.3786  166.1881 N.ar    1  UNL1       -0.2939
      6 C         140.4364  141.2522  165.3671 C.3     1  UNL1        0.1302
      7 C         140.1596  141.4530  163.9066 C.3     1  UNL1        0.1186
      8 N         138.9813  140.7801  163.2672 N.am    1  UNL1       -0.2670
      9 C         138.7044  140.9809  161.8066 C.2     1  UNL1        0.2494
     10 O         137.5261  140.3080  161.1672 O.2     1  UNL1       -0.2699
     11 C         138.0798  139.9065  164.0882 C.3     1  UNL1        0.1599
     12 C         139.6059  141.8545  160.9856 C.ar    1  UNL1        0.0537
     13 C         139.3215  143.3223  160.8649 C.ar    1  UNL1        0.0068
     14 C         140.2230  144.1959  160.0438 C.ar    1  UNL1        0.0298
     15 C         141.4089  143.6017  159.3434 C.ar    1  UNL1        0.1401
     16 F         142.3103  144.4753  158.5224 F       1  UNL1       -0.2042
     17 C         141.6933  142.1339  159.4642 C.ar    1  UNL1        0.0298
     18 C         140.7919  141.2603  160.2852 C.ar    1  UNL1        0.0068
     19 C         143.7720  142.2654  169.8657 C.3     1  UNL1        0.0744
     20 C         142.5031  141.4877  169.6774 C.ar    1  UNL1        0.1481
     21 N         141.7337  140.7817  170.7542 N.ar    1  UNL1       -0.1929
     22 S         140.5361  140.1372  170.1214 S.2     1  UNL1        0.0369
     23 C         140.5653  140.4448  168.6537 C.ar    1  UNL1        0.1652
     24 N         141.7811  141.2795  168.3792 N.ar    1  UNL1       -0.2190
@<TRIPOS>BOND
     1    19    20    1
     2    20    21   ar
     3    21    22   ar
     4    22    23   ar
     5    23     1    1
     6     1     2   ar
     7     2     3   ar
     8     3     4   ar
     9     4     5   ar
    10     5     6    1
    11     6     7    1
    12     7     8    1
    13     8     9   am
    14     9    10    2
    15     9    12    1
    16    12    13   ar
    17    13    14   ar
    18    14    15   ar
    19    15    16    1
    20    15    17   ar
    21    17    18   ar
    22     8    11    1
    23    23    24   ar
    24    24    20   ar
    25     5     1   ar
    26    18    12   ar
    27    11     4    1
@<TRIPOS>MOLECULE
*****
 24 27 0 0 0
SMALL
GASTEIGER

@<TRIPOS>ATOM
      1 C         139.7141  140.4815  161.5644 C.ar    1  UNL1        0.1917
      2 N         138.6082  139.4986  161.3174 N.ar    1  UNL1       -0.1268
      3 N         138.1228  139.0033  162.6475 N.ar    1  UNL1       -0.1315
      4 C         138.9285  139.6801  163.7165 C.ar    1  UNL1        0.1636
      5 N         139.9121  140.5937  163.0471 N.ar    1  UNL1       -0.2939
      6 C         140.8608  141.4096  163.8741 C.3     1  UNL1        0.1302
      7 C         140.8260  141.3121  165.3705 C.3     1  UNL1        0.1186
      8 N         139.8425  140.3985  166.0398 N.am    1  UNL1       -0.2670
      9 C         139.8078  140.3009  167.5363 C.2     1  UNL1        0.2494
     10 O         138.8242  139.3873  168.2057 O.2     1  UNL1       -0.2699
     11 C         138.8938  139.5825  165.2128 C.3     1  UNL1        0.1599
     12 C         140.7565  141.1169  168.3633 C.ar    1  UNL1        0.0537
     13 C         140.3626  142.4901  168.8206 C.ar    1  UNL1        0.0068
     14 C         141.3114  143.3061  169.6477 C.ar    1  UNL1        0.0298
     15 C         142.6541  142.7489  170.0174 C.ar    1  UNL1        0.1401
     16 F         143.6028  143.5649  170.8444 F       1  UNL1       -0.2042
     17 C         143.0480  141.3757  169.5601 C.ar    1  UNL1        0.0298
     18 C         142.0992  140.5597  168.7331 C.ar    1  UNL1        0.0068
     19 C         143.6048  142.9901  159.0247 C.3     1  UNL1        0.0744
     20 C         142.2748  142.3753  159.3459 C.ar    1  UNL1        0.1481
     21 N         141.0752  142.3488  158.4457 N.ar    1  UNL1       -0.1929
     22 S         139.9700  141.6361  159.1673 S.2     1  UNL1        0.0369
     23 C         140.4864  141.2222  160.5133 C.ar    1  UNL1        0.1652
     24 N         141.9109  141.6790  160.6237 N.ar    1  UNL1       -0.2190
@<TRIPOS>BOND
     1    19    20    1
     2    20    21   ar
     3    21    22   ar
     4    22    23   ar
     5    23     1    1
     6     1     2   ar
     7     2     3   ar
     8     3     4   ar
     9     4     5   ar
    10     5     6    1
    11     6     7    1
    12     7     8    1
    13     8     9   am
    14     9    10    2
    15     9    12    1
    16    12    13   ar
    17    13    14   ar
    18    14    15   ar
    19    15    16    1
    20    15    17   ar
    21    17    18   ar
    22     8    11    1
    23    23    24   ar
    24    24    20   ar
    25     5     1   ar
    26    18    12   ar
    27    11     4    1
