@<TRIPOS>MOLECULE
*****
 31 32 0 0 0
SMALL
GASTEIGER

@<TRIPOS>ATOM
      1 C         143.3519  142.9382  163.9881 C.ar    1  UNL1        0.0764
      2 C         142.3845  144.0842  164.0218 C.ar    1  UNL1        0.0522
      3 C         142.0551  144.8250  162.7598 C.ar    1  UNL1        0.1516
      4 N         142.6929  144.4199  161.4641 N.ar    1  UNL1       -0.1329
      5 N         143.6603  143.2740  161.4303 N.ar    1  UNL1       -0.1409
      6 C         143.9898  142.5332  162.6923 C.ar    1  UNL1        0.1691
      7 C         144.9571  141.3873  162.6585 C.2     1  UNL1        0.2635
      8 N         144.6303  140.1528  161.8716 N.am    1  UNL1       -0.3240
      9 O         146.2513  141.4759  163.4117 O.2     1  UNL1       -0.2686
     10 H         143.7809  140.0947  161.3772 H       1  UNL1        0.1453
     11 H         145.2653  139.4008  161.8494 H       1  UNL1        0.1453
     12 N         143.6814  142.1975  165.2501 N.pl3   1  UNL1       -0.2965
     13 H         144.6168  142.1243  165.5480 H       1  UNL1        0.1537
     14 C         140.3938  140.3094  167.6744 C.ar    1  UNL1        0.1522
     15 C         141.5329  140.9995  168.3644 C.ar    1  UNL1        0.0410
     16 C         142.6288  141.6289  167.5563 C.ar    1  UNL1        0.0375
     17 C         142.5855  141.5681  166.0582 C.ar    1  UNL1        0.1320
     18 N         141.4464  140.8780  165.3682 N.ar    1  UNL1       -0.2319
     19 C         140.3505  140.2487  166.1763 C.ar    1  UNL1        0.0938
     20 C         139.2114  139.5586  165.4862 C.3     1  UNL1        0.0434
     21 C         139.2090  138.0644  165.3542 C.3     1  UNL1        0.0064
     22 C         138.0747  140.3626  164.9282 C.3     1  UNL1        0.0064
     23 C         138.8959  140.2805  169.7970 C.3     1  UNL1        0.2525
     24 O         139.2980  139.6801  168.4825 O.3     1  UNL1       -0.4702
     25 N         141.0877  145.9709  162.7936 N.pl3   1  UNL1       -0.3155
     26 H         141.3687  146.8419  163.1565 H       1  UNL1        0.1483
     27 C         139.6921  145.7898  162.2744 C.3     1  UNL1        0.1052
     28 C         138.9676  144.4969  162.5059 C.3     1  UNL1        0.0866
     29 N         137.4746  144.4892  162.6501 N.3     1  UNL1       -0.3197
     30 H         137.2127  144.9864  163.5014 H       1  UNL1        0.1189
     31 H         137.1431  143.5260  162.7033 H       1  UNL1        0.1189
@<TRIPOS>BOND
     1    23    24    1
     2    24    14    1
     3    14    15   ar
     4    15    16   ar
     5    16    17   ar
     6    17    12    1
     7    12     1    1
     8     1     2   ar
     9     2     3   ar
    10     3    25    1
    11    25    27    1
    12    27    28    1
    13    28    29    1
    14     3     4   ar
    15     4     5   ar
    16     5     6   ar
    17     6     7    1
    18     7     8   am
    19     7     9    2
    20    17    18   ar
    21    18    19   ar
    22    19    20    1
    23    20    21    1
    24    20    22    1
    25    19    14   ar
    26     6     1   ar
    27    12    13    1
    28    25    26    1
    29    29    30    1
    30    29    31    1
    31     8    10    1
    32     8    11    1
@<TRIPOS>MOLECULE
*****
 31 32 0 0 0
SMALL
GASTEIGER

@<TRIPOS>ATOM
      1 C         137.9863  140.5569  163.9752 C.ar    1  UNL1        0.0764
      2 C         137.8093  142.0451  164.0388 C.ar    1  UNL1        0.0522
      3 C         137.7587  142.8491  162.7736 C.ar    1  UNL1        0.1516
      4 N         137.8852  142.1650  161.4447 N.ar    1  UNL1       -0.1329
      5 N         138.0622  140.6769  161.3810 N.ar    1  UNL1       -0.1409
      6 C         138.1128  139.8728  162.6463 C.ar    1  UNL1        0.1691
      7 C         138.2898  138.3847  162.5827 C.2     1  UNL1        0.2635
      8 N         137.4570  137.5700  161.6378 N.am    1  UNL1       -0.3240
      9 O         139.2996  137.7112  163.4639 O.2     1  UNL1       -0.2686
     10 H         136.7943  138.0121  161.0593 H       1  UNL1        0.1453
     11 H         137.5732  136.5933  161.5960 H       1  UNL1        0.1453
     12 N         138.0368  139.7529  165.2405 N.pl3   1  UNL1       -0.2965
     13 H         137.2716  139.1887  165.4961 H       1  UNL1        0.1537
     14 C         141.6862  139.9195  167.8681 C.ar    1  UNL1        0.1522
     15 C         140.3180  139.9492  168.4820 C.ar    1  UNL1        0.0410
     16 C         139.1015  139.8936  167.6062 C.ar    1  UNL1        0.0375
     17 C         139.2533  139.8084  166.1164 C.ar    1  UNL1        0.1320
     18 N         140.6215  139.7788  165.5024 N.ar    1  UNL1       -0.2319
     19 C         141.8380  139.8343  166.3782 C.ar    1  UNL1        0.0938
     20 C         143.2063  139.8047  165.7642 C.3     1  UNL1        0.0434
     21 C         143.7630  141.0360  165.1131 C.3     1  UNL1        0.0064
     22 C         144.0178  138.5437  165.8012 C.3     1  UNL1        0.0064
     23 C         143.1046  141.1341  169.6744 C.3     1  UNL1        0.2525
     24 O         142.9027  139.9751  168.7439 O.3     1  UNL1       -0.4702
     25 N         137.5817  144.3373  162.8372 N.pl3   1  UNL1       -0.3155
     26 H         136.6945  144.7199  163.0263 H       1  UNL1        0.1483
     27 C         138.7564  145.2426  162.6126 C.3     1  UNL1        0.1052
     28 C         140.0582  144.9680  163.3054 C.3     1  UNL1        0.0866
     29 N         141.2429  145.8530  163.0539 N.3     1  UNL1       -0.3197
     30 H         141.5417  145.7537  162.0837 H       1  UNL1        0.1189
     31 H         142.0065  145.5833  163.6741 H       1  UNL1        0.1189
@<TRIPOS>BOND
     1    23    24    1
     2    24    14    1
     3    14    15   ar
     4    15    16   ar
     5    16    17   ar
     6    17    12    1
     7    12     1    1
     8     1     2   ar
     9     2     3   ar
    10     3    25    1
    11    25    27    1
    12    27    28    1
    13    28    29    1
    14     3     4   ar
    15     4     5   ar
    16     5     6   ar
    17     6     7    1
    18     7     8   am
    19     7     9    2
    20    17    18   ar
    21    18    19   ar
    22    19    20    1
    23    20    21    1
    24    20    22    1
    25    19    14   ar
    26     6     1   ar
    27    12    13    1
    28    25    26    1
    29    29    30    1
    30    29    31    1
    31     8    10    1
    32     8    11    1
@<TRIPOS>MOLECULE
*****
 31 32 0 0 0
SMALL
GASTEIGER

@<TRIPOS>ATOM
      1 C         140.0161  139.8510  167.6198 C.ar    1  UNL1        0.0764
      2 C         140.9157  140.5441  168.6000 C.ar    1  UNL1        0.0522
      3 C         140.4630  140.7547  170.0144 C.ar    1  UNL1        0.1516
      4 N         139.1107  140.2723  170.4488 N.ar    1  UNL1       -0.1329
      5 N         138.2111  139.5793  169.4687 N.ar    1  UNL1       -0.1409
      6 C         138.6639  139.3687  168.0542 C.ar    1  UNL1        0.1691
      7 C         137.7643  138.6757  167.0741 C.2     1  UNL1        0.2635
      8 N         136.9612  137.4845  167.5056 N.am    1  UNL1       -0.3240
      9 O         137.6679  139.1739  165.6626 O.2     1  UNL1       -0.2686
     10 H         137.0245  137.1576  168.4321 H       1  UNL1        0.1453
     11 H         136.3708  137.0297  166.8623 H       1  UNL1        0.1453
     12 N         140.4689  139.6405  166.2054 N.pl3   1  UNL1       -0.2965
     13 H         140.6703  138.7323  165.8831 H       1  UNL1        0.1537
     14 C         140.9063  143.1597  163.4353 C.ar    1  UNL1        0.1522
     15 C         141.9551  142.0876  163.4572 C.ar    1  UNL1        0.0410
     16 C         141.8093  140.9145  164.3806 C.ar    1  UNL1        0.0375
     17 C         140.6147  140.8135  165.2821 C.ar    1  UNL1        0.1320
     18 N         139.5658  141.8856  165.2601 N.ar    1  UNL1       -0.2319
     19 C         139.7116  143.0587  164.3367 C.ar    1  UNL1        0.0938
     20 C         138.6627  144.1309  164.3148 C.3     1  UNL1        0.0434
     21 C         137.7596  144.2723  163.1256 C.3     1  UNL1        0.0064
     22 C         138.5170  145.0615  165.4822 C.3     1  UNL1        0.0064
     23 C         141.2927  144.1098  161.0483 C.3     1  UNL1        0.2525
     24 O         141.0521  144.3328  162.5119 O.3     1  UNL1       -0.4702
     25 N         141.3625  141.4477  170.9946 N.pl3   1  UNL1       -0.3155
     26 H         141.3030  141.2338  171.9537 H       1  UNL1        0.1483
     27 C         142.3527  142.4664  170.5133 C.3     1  UNL1        0.1052
     28 C         143.7166  142.0329  170.0641 C.3     1  UNL1        0.0866
     29 N         144.8719  142.9859  170.1476 N.3     1  UNL1       -0.3197
     30 H         144.7191  143.7625  169.5041 H       1  UNL1        0.1189
     31 H         145.7325  142.4999  169.8956 H       1  UNL1        0.1189
@<TRIPOS>BOND
     1    23    24    1
     2    24    14    1
     3    14    15   ar
     4    15    16   ar
     5    16    17   ar
     6    17    12    1
     7    12     1    1
     8     1     2   ar
     9     2     3   ar
    10     3    25    1
    11    25    27    1
    12    27    28    1
    13    28    29    1
    14     3     4   ar
    15     4     5   ar
    16     5     6   ar
    17     6     7    1
    18     7     8   am
    19     7     9    2
    20    17    18   ar
    21    18    19   ar
    22    19    20    1
    23    20    21    1
    24    20    22    1
    25    19    14   ar
    26     6     1   ar
    27    12    13    1
    28    25    26    1
    29    29    30    1
    30    29    31    1
    31     8    10    1
    32     8    11    1
@<TRIPOS>MOLECULE
*****
 31 32 0 0 0
SMALL
GASTEIGER

@<TRIPOS>ATOM
      1 C         141.8671  141.2324  169.3985 C.ar    1  UNL1        0.0764
      2 C         142.9758  142.2326  169.5417 C.ar    1  UNL1        0.0522
      3 C         143.1508  142.9788  170.8311 C.ar    1  UNL1        0.1516
      4 N         142.2172  142.7249  171.9773 N.ar    1  UNL1       -0.1329
      5 N         141.1085  141.7248  171.8341 N.ar    1  UNL1       -0.1409
      6 C         140.9334  140.9785  170.5447 C.ar    1  UNL1        0.1691
      7 C         139.8248  139.9784  170.4016 C.2     1  UNL1        0.2635
      8 N         139.4534  139.0995  171.5590 N.am    1  UNL1       -0.3240
      9 O         139.0874  139.8572  169.1010 O.2     1  UNL1       -0.2686
     10 H         139.9374  139.1791  172.4126 H       1  UNL1        0.1453
     11 H         138.7257  138.4431  171.4650 H       1  UNL1        0.1453
     12 N         141.6921  140.4862  168.1092 N.pl3   1  UNL1       -0.2965
     13 H         141.6735  139.5019  168.1087 H       1  UNL1        0.1537
     14 C         141.2521  142.7467  164.2431 C.ar    1  UNL1        0.1522
     15 C         142.5312  142.0254  164.5487 C.ar    1  UNL1        0.0410
     16 C         142.6779  141.2719  165.8374 C.ar    1  UNL1        0.0375
     17 C         141.5454  141.2397  166.8205 C.ar    1  UNL1        0.1320
     18 N         140.2663  141.9610  166.5148 N.ar    1  UNL1       -0.2319
     19 C         140.1196  142.7145  165.2261 C.ar    1  UNL1        0.0938
     20 C         138.8404  143.4359  164.9205 C.3     1  UNL1        0.0434
     21 C         137.7562  142.7452  164.1474 C.3     1  UNL1        0.0064
     22 C         138.6454  144.8477  165.3879 C.3     1  UNL1        0.0064
     23 C         141.7803  144.8286  162.7813 C.3     1  UNL1        0.2525
     24 O         141.1054  143.5002  162.9544 O.3     1  UNL1       -0.4702
     25 N         144.2595  143.9790  170.9743 N.pl3   1  UNL1       -0.3155
     26 H         144.0554  144.9063  171.2347 H       1  UNL1        0.1483
     27 C         145.6792  143.5664  170.7208 C.3     1  UNL1        0.1052
     28 C         146.7881  144.5660  170.8659 C.3     1  UNL1        0.0866
     29 N         146.4741  145.9871  171.2290 N.3     1  UNL1       -0.3197
     30 H         145.9490  146.4235  170.4713 H       1  UNL1        0.1189
     31 H         147.3431  146.4995  171.3797 H       1  UNL1        0.1189
@<TRIPOS>BOND
     1    23    24    1
     2    24    14    1
     3    14    15   ar
     4    15    16   ar
     5    16    17   ar
     6    17    12    1
     7    12     1    1
     8     1     2   ar
     9     2     3   ar
    10     3    25    1
    11    25    27    1
    12    27    28    1
    13    28    29    1
    14     3     4   ar
    15     4     5   ar
    16     5     6   ar
    17     6     7    1
    18     7     8   am
    19     7     9    2
    20    17    18   ar
    21    18    19   ar
    22    19    20    1
    23    20    21    1
    24    20    22    1
    25    19    14   ar
    26     6     1   ar
    27    12    13    1
    28    25    26    1
    29    29    30    1
    30    29    31    1
    31     8    10    1
    32     8    11    1
@<TRIPOS>MOLECULE
*****
 31 32 0 0 0
SMALL
GASTEIGER

@<TRIPOS>ATOM
      1 C         142.5580  142.2962  163.3306 C.ar    1  UNL1        0.0764
      2 C         141.5404  143.3983  163.3219 C.ar    1  UNL1        0.0522
      3 C         141.9478  144.7923  162.9469 C.ar    1  UNL1        0.1516
      4 N         143.3728  145.0844  162.5806 N.ar    1  UNL1       -0.1329
      5 N         144.3904  143.9824  162.5893 N.ar    1  UNL1       -0.1409
      6 C         143.9830  142.5882  162.9643 C.ar    1  UNL1        0.1691
      7 C         145.0006  141.4863  162.9729 C.2     1  UNL1        0.2635
      8 N         146.3405  141.7077  163.6099 N.am    1  UNL1       -0.3240
      9 O         144.6783  140.1629  162.3447 O.2     1  UNL1       -0.2686
     10 H         146.5520  142.5762  164.0222 H       1  UNL1        0.1453
     11 H         147.0083  140.9844  163.6156 H       1  UNL1        0.1453
     12 N         142.1506  140.9021  163.7055 N.pl3   1  UNL1       -0.2965
     13 H         141.8585  140.2706  163.0091 H       1  UNL1        0.1537
     14 C         142.2636  139.6068  168.0136 C.ar    1  UNL1        0.1522
     15 C         143.1966  138.9834  167.0182 C.ar    1  UNL1        0.0410
     16 C         143.1590  139.4152  165.5822 C.ar    1  UNL1        0.0375
     17 C         142.1883  140.4704  165.1415 C.ar    1  UNL1        0.1320
     18 N         141.2553  141.0938  166.1369 N.ar    1  UNL1       -0.2319
     19 C         141.2929  140.6620  167.5729 C.ar    1  UNL1        0.0938
     20 C         140.3598  141.2855  168.5682 C.3     1  UNL1        0.0434
     21 C         140.4952  142.7386  168.9152 C.3     1  UNL1        0.0064
     22 C         139.2914  140.4560  169.2166 C.3     1  UNL1        0.0064
     23 C         142.9852  140.0324  170.4728 C.3     1  UNL1        0.2525
     24 O         142.3013  139.1751  169.4496 O.3     1  UNL1       -0.4702
     25 N         140.9302  145.8944  162.9383 N.pl3   1  UNL1       -0.3155
     26 H         141.1133  146.7372  163.4130 H       1  UNL1        0.1483
     27 C         139.6337  145.7123  162.2062 C.3     1  UNL1        0.1052
     28 C         138.5104  144.9530  162.8477 C.3     1  UNL1        0.0866
     29 N         137.7915  143.8848  162.0783 N.3     1  UNL1       -0.3197
     30 H         137.2882  144.3078  161.2984 H       1  UNL1        0.1189
     31 H         137.1299  143.4101  162.6926 H       1  UNL1        0.1189
@<TRIPOS>BOND
     1    23    24    1
     2    24    14    1
     3    14    15   ar
     4    15    16   ar
     5    16    17   ar
     6    17    12    1
     7    12     1    1
     8     1     2   ar
     9     2     3   ar
    10     3    25    1
    11    25    27    1
    12    27    28    1
    13    28    29    1
    14     3     4   ar
    15     4     5   ar
    16     5     6   ar
    17     6     7    1
    18     7     8   am
    19     7     9    2
    20    17    18   ar
    21    18    19   ar
    22    19    20    1
    23    20    21    1
    24    20    22    1
    25    19    14   ar
    26     6     1   ar
    27    12    13    1
    28    25    26    1
    29    29    30    1
    30    29    31    1
    31     8    10    1
    32     8    11    1
@<TRIPOS>MOLECULE
*****
 31 32 0 0 0
SMALL
GASTEIGER

@<TRIPOS>ATOM
      1 C         140.8793  143.9396  163.5707 C.ar    1  UNL1        0.0764
      2 C         142.2132  143.3153  163.8555 C.ar    1  UNL1        0.0522
      3 C         143.3236  143.4286  162.8535 C.ar    1  UNL1        0.1516
      4 N         143.1002  144.1663  161.5667 N.ar    1  UNL1       -0.1329
      5 N         141.7665  144.7906  161.2818 N.ar    1  UNL1       -0.1409
      6 C         140.6559  144.6773  162.2839 C.ar    1  UNL1        0.1691
      7 C         139.3222  145.3016  161.9991 C.2     1  UNL1        0.2635
      8 N         139.2493  146.6505  161.3469 N.am    1  UNL1       -0.3240
      9 O         138.0612  144.5771  162.3664 O.2     1  UNL1       -0.2686
     10 H         140.0770  147.1260  161.1058 H       1  UNL1        0.1453
     11 H         138.3739  147.0602  161.1600 H       1  UNL1        0.1453
     12 N         139.7689  143.8263  164.5727 N.pl3   1  UNL1       -0.2965
     13 H         138.9959  144.4338  164.5217 H       1  UNL1        0.1537
     14 C         139.9709  140.7095  167.8123 C.ar    1  UNL1        0.1522
     15 C         140.5381  142.0774  168.0512 C.ar    1  UNL1        0.0410
     16 C         140.4707  143.1163  166.9714 C.ar    1  UNL1        0.0375
     17 C         139.8362  142.7874  165.6526 C.ar    1  UNL1        0.1320
     18 N         139.2691  141.4195  165.4137 N.ar    1  UNL1       -0.2319
     19 C         139.3364  140.3805  166.4936 C.ar    1  UNL1        0.0938
     20 C         138.7692  139.0126  166.2546 C.3     1  UNL1        0.0434
     21 C         139.3835  138.1161  165.2207 C.3     1  UNL1        0.0064
     22 C         137.5878  138.5411  167.0496 C.3     1  UNL1        0.0064
     23 C         139.7153  140.0401  170.3096 C.3     1  UNL1        0.2525
     24 O         140.0383  139.6706  168.8922 O.3     1  UNL1       -0.4702
     25 N         144.6575  142.8042  163.1383 N.pl3   1  UNL1       -0.3155
     26 H         145.4107  142.9491  162.5211 H       1  UNL1        0.1483
     27 C         144.8437  141.9592  164.3635 C.3     1  UNL1        0.1052
     28 C         144.6852  140.4700  164.2787 C.3     1  UNL1        0.0866
     29 N         144.8555  139.7714  162.9623 N.3     1  UNL1       -0.3197
     30 H         144.1117  140.0587  162.3262 H       1  UNL1        0.1189
     31 H         144.8103  138.7624  163.1045 H       1  UNL1        0.1189
@<TRIPOS>BOND
     1    23    24    1
     2    24    14    1
     3    14    15   ar
     4    15    16   ar
     5    16    17   ar
     6    17    12    1
     7    12     1    1
     8     1     2   ar
     9     2     3   ar
    10     3    25    1
    11    25    27    1
    12    27    28    1
    13    28    29    1
    14     3     4   ar
    15     4     5   ar
    16     5     6   ar
    17     6     7    1
    18     7     8   am
    19     7     9    2
    20    17    18   ar
    21    18    19   ar
    22    19    20    1
    23    20    21    1
    24    20    22    1
    25    19    14   ar
    26     6     1   ar
    27    12    13    1
    28    25    26    1
    29    29    30    1
    30    29    31    1
    31     8    10    1
    32     8    11    1
@<TRIPOS>MOLECULE
*****
 31 32 0 0 0
SMALL
GASTEIGER

@<TRIPOS>ATOM
      1 C         142.8085  140.9698  166.6152 C.ar    1  UNL1        0.0764
      2 C         142.4900  142.1867  167.4325 C.ar    1  UNL1        0.0522
      3 C         142.3774  142.0798  168.9244 C.ar    1  UNL1        0.1516
      4 N         142.5833  140.7560  169.5991 N.ar    1  UNL1       -0.1329
      5 N         142.9018  139.5392  168.7820 N.ar    1  UNL1       -0.1409
      6 C         143.0144  139.6460  167.2900 C.ar    1  UNL1        0.1691
      7 C         143.3328  138.4292  166.4728 C.2     1  UNL1        0.2635
      8 N         144.4448  137.5140  166.8923 N.am    1  UNL1       -0.3240
      9 O         142.5393  138.1275  165.2362 O.2     1  UNL1       -0.2686
     10 H         144.9657  137.7120  167.7039 H       1  UNL1        0.1453
     11 H         144.6539  136.7153  166.3559 H       1  UNL1        0.1453
     12 N         142.9210  141.0767  165.1233 N.pl3   1  UNL1       -0.2965
     13 H         143.4106  140.3894  164.6161 H       1  UNL1        0.1537
     14 C         141.0210  144.5386  162.9658 C.ar    1  UNL1        0.1522
     15 C         142.5149  144.4423  163.0599 C.ar    1  UNL1        0.0410
     16 C         143.1483  143.2883  163.7791 C.ar    1  UNL1        0.0375
     17 C         142.2877  142.2306  164.4042 C.ar    1  UNL1        0.1320
     18 N         140.7938  142.3270  164.3100 N.ar    1  UNL1       -0.2319
     19 C         140.1604  143.4810  163.5909 C.ar    1  UNL1        0.0938
     20 C         138.6664  143.5773  163.4968 C.3     1  UNL1        0.0434
     21 C         137.8809  144.1757  164.6259 C.3     1  UNL1        0.0064
     22 C         137.9581  143.0752  162.2737 C.3     1  UNL1        0.0064
     23 C         140.2335  145.6534  160.7552 C.3     1  UNL1        0.2525
     24 O         140.3877  145.6926  162.2467 O.3     1  UNL1       -0.4702
     25 N         142.0589  143.2967  169.7416 N.pl3   1  UNL1       -0.3155
     26 H         142.7863  143.8196  170.1499 H       1  UNL1        0.1483
     27 C         140.6322  143.7167  169.9368 C.3     1  UNL1        0.1052
     28 C         139.7497  142.9578  170.8829 C.3     1  UNL1        0.0866
     29 N         140.3553  142.0188  171.8837 N.3     1  UNL1       -0.3197
     30 H         140.7935  141.2378  171.3954 H       1  UNL1        0.1189
     31 H         139.6261  141.6661  172.5036 H       1  UNL1        0.1189
@<TRIPOS>BOND
     1    23    24    1
     2    24    14    1
     3    14    15   ar
     4    15    16   ar
     5    16    17   ar
     6    17    12    1
     7    12     1    1
     8     1     2   ar
     9     2     3   ar
    10     3    25    1
    11    25    27    1
    12    27    28    1
    13    28    29    1
    14     3     4   ar
    15     4     5   ar
    16     5     6   ar
    17     6     7    1
    18     7     8   am
    19     7     9    2
    20    17    18   ar
    21    18    19   ar
    22    19    20    1
    23    20    21    1
    24    20    22    1
    25    19    14   ar
    26     6     1   ar
    27    12    13    1
    28    25    26    1
    29    29    30    1
    30    29    31    1
    31     8    10    1
    32     8    11    1
@<TRIPOS>MOLECULE
*****
 31 32 0 0 0
SMALL
GASTEIGER

@<TRIPOS>ATOM
      1 C         140.5556  142.8788  162.6374 C.ar    1  UNL1        0.0764
      2 C         141.6416  141.8974  162.3094 C.ar    1  UNL1        0.0522
      3 C         142.8714  142.3548  161.5826 C.ar    1  UNL1        0.1516
      4 N         143.0154  143.7936  161.1838 N.ar    1  UNL1       -0.1329
      5 N         141.9294  144.7750  161.5118 N.ar    1  UNL1       -0.1409
      6 C         140.6995  144.3176  162.2386 C.ar    1  UNL1        0.1691
      7 C         139.6136  145.2990  162.5665 C.2     1  UNL1        0.2635
      8 N         139.2705  146.3901  161.5960 N.am    1  UNL1       -0.3240
      9 O         138.8707  145.1893  163.8650 O.2     1  UNL1       -0.2686
     10 H         139.7581  146.4620  160.7438 H       1  UNL1        0.1453
     11 H         138.5578  147.0342  161.8113 H       1  UNL1        0.1453
     12 N         139.3258  142.4213  163.3641 N.pl3   1  UNL1       -0.2965
     13 H         138.4384  142.5437  162.9555 H       1  UNL1        0.1537
     14 C         139.6919  140.4895  167.4118 C.ar    1  UNL1        0.1522
     15 C         138.8986  139.8189  166.3297 C.ar    1  UNL1        0.0410
     16 C         138.7765  140.4629  164.9805 C.ar    1  UNL1        0.0375
     17 C         139.4478  141.7774  164.7133 C.ar    1  UNL1        0.1320
     18 N         140.2412  142.4479  165.7954 N.ar    1  UNL1       -0.2319
     19 C         140.3632  141.8040  167.1446 C.ar    1  UNL1        0.0938
     20 C         141.1566  142.4746  168.2267 C.3     1  UNL1        0.0434
     21 C         142.6281  142.2110  168.3509 C.3     1  UNL1        0.0064
     22 C         140.4786  143.4087  169.1846 C.3     1  UNL1        0.0064
     23 C         138.8381  140.1891  169.8471 C.3     1  UNL1        0.2525
     24 O         139.8140  139.8455  168.7610 O.3     1  UNL1       -0.4702
     25 N         143.9574  141.3734  161.2546 N.pl3   1  UNL1       -0.3155
     26 H         144.3789  141.3846  160.3650 H       1  UNL1        0.1483
     27 C         144.4013  140.3749  162.2822 C.3     1  UNL1        0.1052
     28 C         145.1831  140.8279  163.4795 C.3     1  UNL1        0.0866
     29 N         146.3020  141.8134  163.3157 N.3     1  UNL1       -0.3197
     30 H         147.0531  141.3877  162.7726 H       1  UNL1        0.1189
     31 H         146.6562  142.0814  164.2340 H       1  UNL1        0.1189
@<TRIPOS>BOND
     1    23    24    1
     2    24    14    1
     3    14    15   ar
     4    15    16   ar
     5    16    17   ar
     6    17    12    1
     7    12     1    1
     8     1     2   ar
     9     2     3   ar
    10     3    25    1
    11    25    27    1
    12    27    28    1
    13    28    29    1
    14     3     4   ar
    15     4     5   ar
    16     5     6   ar
    17     6     7    1
    18     7     8   am
    19     7     9    2
    20    17    18   ar
    21    18    19   ar
    22    19    20    1
    23    20    21    1
    24    20    22    1
    25    19    14   ar
    26     6     1   ar
    27    12    13    1
    28    25    26    1
    29    29    30    1
    30    29    31    1
    31     8    10    1
    32     8    11    1
@<TRIPOS>MOLECULE
*****
 31 32 0 0 0
SMALL
GASTEIGER

@<TRIPOS>ATOM
      1 C         142.5016  140.7753  169.7274 C.ar    1  UNL1        0.0764
      2 C         143.5787  141.8070  169.8877 C.ar    1  UNL1        0.0522
      3 C         143.3723  142.9691  170.8134 C.ar    1  UNL1        0.1516
      4 N         142.0889  143.0996  171.5788 N.ar    1  UNL1       -0.1329
      5 N         141.0119  142.0679  171.4186 N.ar    1  UNL1       -0.1409
      6 C         141.2182  140.9058  170.4929 C.ar    1  UNL1        0.1691
      7 C         140.1412  139.8741  170.3326 C.2     1  UNL1        0.2635
      8 N         139.6792  139.0816  171.5194 N.am    1  UNL1       -0.3240
      9 O         139.5262  139.6350  168.9856 O.2     1  UNL1       -0.2686
     10 H         140.0829  139.2385  172.4035 H       1  UNL1        0.1453
     11 H         138.9723  138.4045  171.4142 H       1  UNL1        0.1453
     12 N         142.7080  139.6132  168.8018 N.pl3   1  UNL1       -0.2965
     13 H         142.7426  138.6974  169.1615 H       1  UNL1        0.1537
     14 C         143.1693  140.3127  164.3805 C.ar    1  UNL1        0.1522
     15 C         143.3689  138.9383  164.9472 C.ar    1  UNL1        0.0410
     16 C         143.2151  138.7052  166.4210 C.ar    1  UNL1        0.0375
     17 C         142.8618  139.8464  167.3280 C.ar    1  UNL1        0.1320
     18 N         142.6622  141.2207  166.7613 N.ar    1  UNL1       -0.2319
     19 C         142.8159  141.4539  165.2875 C.ar    1  UNL1        0.0938
     20 C         142.6163  142.8283  164.7208 C.3     1  UNL1        0.0434
     21 C         143.8001  143.7134  164.4651 C.3     1  UNL1        0.0064
     22 C         141.2329  143.3177  164.4097 C.3     1  UNL1        0.0064
     23 C         144.6901  140.7127  162.3124 C.3     1  UNL1        0.2525
     24 O         143.3231  140.5458  162.9067 O.3     1  UNL1       -0.4702
     25 N         144.4494  144.0008  170.9737 N.pl3   1  UNL1       -0.3155
     26 H         144.2180  144.9134  171.2615 H       1  UNL1        0.1483
     27 C         145.8790  143.6420  170.6953 C.3     1  UNL1        0.1052
     28 C         146.9743  144.6102  171.0314 C.3     1  UNL1        0.0866
     29 N         146.6488  146.0521  171.2859 N.3     1  UNL1       -0.3197
     30 H         146.3013  146.4789  170.4271 H       1  UNL1        0.1189
     31 H         147.4895  146.5414  171.5927 H       1  UNL1        0.1189
@<TRIPOS>BOND
     1    23    24    1
     2    24    14    1
     3    14    15   ar
     4    15    16   ar
     5    16    17   ar
     6    17    12    1
     7    12     1    1
     8     1     2   ar
     9     2     3   ar
    10     3    25    1
    11    25    27    1
    12    27    28    1
    13    28    29    1
    14     3     4   ar
    15     4     5   ar
    16     5     6   ar
    17     6     7    1
    18     7     8   am
    19     7     9    2
    20    17    18   ar
    21    18    19   ar
    22    19    20    1
    23    20    21    1
    24    20    22    1
    25    19    14   ar
    26     6     1   ar
    27    12    13    1
    28    25    26    1
    29    29    30    1
    30    29    31    1
    31     8    10    1
    32     8    11    1
