@<TRIPOS>MOLECULE
*****
 35 38 0 0 0
SMALL
GASTEIGER

@<TRIPOS>ATOM
      1 C         141.0485  140.3893  164.6585 C.2     1  UNL1        0.1397
      2 C         140.8106  140.2790  163.1817 C.2     1  UNL1        0.1355
      3 N         140.5683  141.5147  162.3666 N.pl3   1  UNL1       -0.1998
      4 C         140.5639  142.8607  163.0284 C.2     1  UNL1        0.3442
      5 N         140.8019  142.9711  164.5053 N.2     1  UNL1       -0.0580
      6 C         141.0442  141.7354  165.3203 C.3     1  UNL1        0.2695
      7 H         140.4121  141.4422  161.3973 H       1  UNL1        0.2983
      8 C         141.2821  141.8459  166.7973 C.ar    1  UNL1        0.0415
      9 C         140.1634  141.5762  167.7594 C.ar    1  UNL1        0.0034
     10 C         140.4013  141.6866  169.2362 C.ar    1  UNL1        0.0295
     11 C         141.7580  142.0667  169.7511 C.ar    1  UNL1        0.1410
     12 F         141.9959  142.1771  171.2279 F       1  UNL1       -0.2041
     13 C         142.8767  142.3364  168.7889 C.ar    1  UNL1        0.0408
     14 C         142.6388  142.2259  167.3120 C.ar    1  UNL1        0.0603
     15 CL        143.7575  142.4956  166.3499 Cl      1  UNL1       -0.0824
     16 C         140.3216  144.0964  162.2133 C.ar    1  UNL1        0.1931
     17 N         139.7242  145.3787  162.7123 N.ar    1  UNL1       -0.2297
     18 C         139.6675  146.3416  161.5635 C.ar    1  UNL1        0.1067
     19 C         140.2300  145.6545  160.3546 C.ar    1  UNL1        0.0577
     20 S         140.6342  144.2669  160.7562 S.2     1  UNL1       -0.0586
     21 C         141.2908  139.1536  165.4736 C.2     1  UNL1        0.3447
     22 O         142.6897  138.7682  165.8536 O.2     1  UNL1       -0.2450
     23 O         140.1342  138.3034  165.9087 O.3     1  UNL1       -0.4455
     24 C         137.7504  138.5892  166.9015 C.3     1  UNL1        0.0513
     25 C         138.7333  138.8271  165.7936 C.3     1  UNL1        0.2089
     26 C         140.8149  138.9328  162.5198 C.3     1  UNL1        0.1407
     27 N         140.7851  138.8327  161.0235 N.3     1  UNL1       -0.2584
     28 C         142.0565  138.6017  160.2618 C.3     1  UNL1        0.1052
     29 C         142.0266  138.5016  158.7654 C.3     1  UNL1        0.1595
     30 O         140.7254  138.6324  158.0308 O.3     1  UNL1       -0.3505
     31 C         139.4540  138.8634  158.7925 C.3     1  UNL1        0.1637
     32 C         139.4838  138.9635  160.2888 C.3     1  UNL1        0.1247
     33 C         138.2124  139.1945  161.0506 C.2     1  UNL1        0.0673
     34 O         137.4591  138.0305  161.6231 O.co2   1  UNL1       -0.5477
     35 O         137.6943  140.5894  161.2398 O.co2   1  UNL1       -0.5477
@<TRIPOS>UNITY_ATOM_ATTR
34 1
charge -1
@<TRIPOS>BOND
     1    24    25    1
     2    25    23    1
     3    23    21    1
     4    21    22    2
     5    21     1    1
     6     1     2    2
     7     2    26    1
     8    26    27    1
     9    27    28    1
    10    28    29    1
    11    29    30    1
    12    30    31    1
    13    31    32    1
    14    32    33    1
    15    33    34   ar
    16    33    35   ar
    17     2     3    1
    18     3     4    1
    19     4    16    1
    20    16    17   ar
    21    17    18   ar
    22    18    19   ar
    23    19    20   ar
    24     4     5    2
    25     5     6    1
    26     6     8    1
    27     8     9   ar
    28     9    10   ar
    29    10    11   ar
    30    11    12    1
    31    11    13   ar
    32    13    14   ar
    33    14    15    1
    34     6     1    1
    35    14     8   ar
    36    32    27    1
    37    20    16   ar
    38     3     7    1
@<TRIPOS>MOLECULE
*****
 35 38 0 0 0
SMALL
GASTEIGER

@<TRIPOS>ATOM
      1 C         141.0471  140.2827  164.4702 C.2     1  UNL1        0.1397
      2 C         140.8315  140.1905  162.9887 C.2     1  UNL1        0.1355
      3 N         140.6041  141.4364  162.1849 N.pl3   1  UNL1       -0.1998
      4 C         140.5923  142.7745  162.8627 C.2     1  UNL1        0.3442
      5 N         140.8078  142.8666  164.3443 N.2     1  UNL1       -0.0580
      6 C         141.0352  141.6207  165.1480 C.3     1  UNL1        0.2695
      7 H         140.4627  141.3759  161.2125 H       1  UNL1        0.2983
      8 C         141.2508  141.7129  166.6296 C.ar    1  UNL1        0.0415
      9 C         140.1330  141.3785  167.5724 C.ar    1  UNL1        0.0034
     10 C         140.3485  141.4706  169.0539 C.ar    1  UNL1        0.0295
     11 C         141.6818  141.8973  169.5928 C.ar    1  UNL1        0.1410
     12 F         141.8973  141.9894  171.0743 F       1  UNL1       -0.2041
     13 C         142.7996  142.2317  168.6500 C.ar    1  UNL1        0.0408
     14 C         142.5840  142.1395  167.1684 C.ar    1  UNL1        0.0603
     15 CL        143.7018  142.4739  166.2257 Cl      1  UNL1       -0.0824
     16 C         140.3648  144.0204  162.0590 C.ar    1  UNL1        0.1931
     17 N         140.7488  144.2260  160.6236 N.ar    1  UNL1       -0.2297
     18 C         140.3348  145.6121  160.2270 C.ar    1  UNL1        0.1067
     19 C         139.6950  146.2632  161.4173 C.ar    1  UNL1        0.0577
     20 S         139.7136  145.2794  162.5495 S.2     1  UNL1       -0.0586
     21 C         141.2745  139.0368  165.2739 C.2     1  UNL1        0.3447
     22 O         142.6570  138.6853  165.7376 O.2     1  UNL1       -0.2450
     23 O         140.1194  138.1423  165.6140 O.3     1  UNL1       -0.4455
     24 C         137.8309  138.5336  166.7802 C.3     1  UNL1        0.0513
     25 C         138.7194  138.6798  165.5804 C.3     1  UNL1        0.2089
     26 C         140.8434  138.8524  162.3108 C.3     1  UNL1        0.1407
     27 N         140.9302  138.7699  160.8156 N.3     1  UNL1       -0.2584
     28 C         139.6773  138.6856  159.9951 C.3     1  UNL1        0.1052
     29 C         139.7642  138.6030  158.4999 C.3     1  UNL1        0.1595
     30 O         141.1038  138.6048  157.8252 O.3     1  UNL1       -0.3505
     31 C         142.3567  138.6891  158.6457 C.3     1  UNL1        0.1637
     32 C         142.2699  138.7716  160.1409 C.3     1  UNL1        0.1247
     33 C         143.5228  138.8559  160.9613 C.2     1  UNL1        0.0673
     34 O         144.1922  137.6014  161.4392 O.co2   1  UNL1       -0.5477
     35 O         144.1063  140.1946  161.3040 O.co2   1  UNL1       -0.5477
@<TRIPOS>UNITY_ATOM_ATTR
34 1
charge -1
@<TRIPOS>BOND
     1    24    25    1
     2    25    23    1
     3    23    21    1
     4    21    22    2
     5    21     1    1
     6     1     2    2
     7     2    26    1
     8    26    27    1
     9    27    28    1
    10    28    29    1
    11    29    30    1
    12    30    31    1
    13    31    32    1
    14    32    33    1
    15    33    34   ar
    16    33    35   ar
    17     2     3    1
    18     3     4    1
    19     4    16    1
    20    16    17   ar
    21    17    18   ar
    22    18    19   ar
    23    19    20   ar
    24     4     5    2
    25     5     6    1
    26     6     8    1
    27     8     9   ar
    28     9    10   ar
    29    10    11   ar
    30    11    12    1
    31    11    13   ar
    32    13    14   ar
    33    14    15    1
    34     6     1    1
    35    14     8   ar
    36    32    27    1
    37    20    16   ar
    38     3     7    1
@<TRIPOS>MOLECULE
*****
 35 38 0 0 0
SMALL
GASTEIGER

@<TRIPOS>ATOM
      1 C         139.1302  141.3843  160.7863 C.2     1  UNL1        0.1397
      2 C         139.2445  140.7775  159.4194 C.2     1  UNL1        0.1355
      3 N         139.3583  141.6619  158.2133 N.pl3   1  UNL1       -0.1998
      4 C         139.3579  143.1533  158.3741 C.2     1  UNL1        0.3442
      5 N         139.2436  143.7601  159.7411 N.2     1  UNL1       -0.0580
      6 C         139.1298  142.8756  160.9472 C.3     1  UNL1        0.2695
      7 H         139.4333  141.2636  157.3161 H       1  UNL1        0.2983
      8 C         139.0155  143.4825  162.3142 C.ar    1  UNL1        0.0415
      9 C         137.6734  143.5962  162.9745 C.ar    1  UNL1        0.0034
     10 C         137.5591  144.2030  164.3415 C.ar    1  UNL1        0.0295
     11 C         138.7869  144.6963  165.0482 C.ar    1  UNL1        0.1410
     12 F         138.6725  145.3032  166.4151 F       1  UNL1       -0.2041
     13 C         140.1289  144.5827  164.3879 C.ar    1  UNL1        0.0408
     14 C         140.2432  143.9758  163.0209 C.ar    1  UNL1        0.0603
     15 CL        141.5852  143.8621  162.3606 Cl      1  UNL1       -0.0824
     16 C         139.4717  144.0377  157.1680 C.ar    1  UNL1        0.1931
     17 N         140.0054  145.4395  157.1497 N.ar    1  UNL1       -0.2297
     18 C         139.9354  145.9438  155.7388 C.ar    1  UNL1        0.1067
     19 C         139.3583  144.8538  154.8850 C.ar    1  UNL1        0.0577
     20 S         139.0718  143.6758  155.7683 S.2     1  UNL1       -0.0586
     21 C         139.0164  140.4998  161.9925 C.2     1  UNL1        0.3447
     22 O         137.6929  139.8953  162.3570 O.2     1  UNL1       -0.2450
     23 O         140.2261  140.2198  162.8340 O.3     1  UNL1       -0.4455
     24 C         139.4963  140.9914  165.2052 C.3     1  UNL1        0.0513
     25 C         140.0719  139.9427  164.3001 C.3     1  UNL1        0.2089
     26 C         139.2450  139.2861  159.2585 C.3     1  UNL1        0.1407
     27 N         140.5033  138.5755  158.8567 N.3     1  UNL1       -0.2584
     28 C         141.6202  138.4114  159.8445 C.3     1  UNL1        0.1052
     29 C         142.8786  137.7008  159.4426 C.3     1  UNL1        0.1595
     30 O         143.0201  137.1542  158.0529 O.3     1  UNL1       -0.3505
     31 C         141.9033  137.3182  157.0651 C.3     1  UNL1        0.1637
     32 C         140.6449  138.0288  157.4669 C.3     1  UNL1        0.1247
     33 C         139.5281  138.1929  156.4791 C.2     1  UNL1        0.0673
     34 O         139.2461  139.5401  155.8828 O.co2   1  UNL1       -0.5477
     35 O         138.6934  137.0097  156.0876 O.co2   1  UNL1       -0.5477
@<TRIPOS>UNITY_ATOM_ATTR
34 1
charge -1
@<TRIPOS>BOND
     1    24    25    1
     2    25    23    1
     3    23    21    1
     4    21    22    2
     5    21     1    1
     6     1     2    2
     7     2    26    1
     8    26    27    1
     9    27    28    1
    10    28    29    1
    11    29    30    1
    12    30    31    1
    13    31    32    1
    14    32    33    1
    15    33    34   ar
    16    33    35   ar
    17     2     3    1
    18     3     4    1
    19     4    16    1
    20    16    17   ar
    21    17    18   ar
    22    18    19   ar
    23    19    20   ar
    24     4     5    2
    25     5     6    1
    26     6     8    1
    27     8     9   ar
    28     9    10   ar
    29    10    11   ar
    30    11    12    1
    31    11    13   ar
    32    13    14   ar
    33    14    15    1
    34     6     1    1
    35    14     8   ar
    36    32    27    1
    37    20    16   ar
    38     3     7    1
@<TRIPOS>MOLECULE
*****
 35 38 0 0 0
SMALL
GASTEIGER

@<TRIPOS>ATOM
      1 C         140.4402  139.5859  164.1132 C.2     1  UNL1        0.1397
      2 C         140.4489  139.7342  162.6206 C.2     1  UNL1        0.1355
      3 N         140.3932  141.0996  162.0022 N.pl3   1  UNL1       -0.1998
      4 C         140.3288  142.3168  162.8765 C.2     1  UNL1        0.3442
      5 N         140.3201  142.1685  164.3690 N.2     1  UNL1       -0.0580
      6 C         140.3759  140.8030  164.9874 C.3     1  UNL1        0.2695
      7 H         140.3989  141.1970  161.0226 H       1  UNL1        0.2983
      8 C         140.3672  140.6547  166.4801 C.ar    1  UNL1        0.0415
      9 C         139.1613  140.0898  167.1706 C.ar    1  UNL1        0.0034
     10 C         139.1526  139.9416  168.6632 C.ar    1  UNL1        0.0295
     11 C         140.3498  140.3582  169.4654 C.ar    1  UNL1        0.1410
     12 F         140.3410  140.2099  170.9580 F       1  UNL1       -0.2041
     13 C         141.5556  140.9231  168.7748 C.ar    1  UNL1        0.0408
     14 C         141.5643  141.0714  167.2821 C.ar    1  UNL1        0.0603
     15 CL        142.7701  141.6363  166.5916 Cl      1  UNL1       -0.0824
     16 C         140.2731  143.6823  162.2581 C.ar    1  UNL1        0.1931
     17 N         140.7601  144.0502  160.8879 N.ar    1  UNL1       -0.2297
     18 C         140.5086  145.5149  160.6843 C.ar    1  UNL1        0.1067
     19 C         139.8661  146.0522  161.9287 C.ar    1  UNL1        0.0577
     20 S         139.7206  144.9196  162.9013 S.2     1  UNL1       -0.0586
     21 C         140.4960  138.2204  164.7316 C.2     1  UNL1        0.3447
     22 O         139.2257  137.4977  165.0695 O.2     1  UNL1       -0.2450
     23 O         141.8219  137.5776  165.0120 O.3     1  UNL1       -0.4455
     24 C         143.9700  138.2112  166.3289 C.3     1  UNL1        0.0513
     25 C         143.0495  138.4260  165.1641 C.3     1  UNL1        0.2089
     26 C         140.5133  138.5170  161.7463 C.3     1  UNL1        0.1407
     27 N         140.8687  138.6536  160.2954 N.3     1  UNL1       -0.2584
     28 C         139.7894  138.6347  159.2539 C.3     1  UNL1        0.1052
     29 C         140.1448  138.7714  157.8030 C.3     1  UNL1        0.1595
     30 O         141.5794  138.9270  157.3937 O.3     1  UNL1       -0.3505
     31 C         142.6587  138.9459  158.4352 C.3     1  UNL1        0.1637
     32 C         142.3033  138.8092  159.8860 C.3     1  UNL1        0.1247
     33 C         143.3826  138.8281  160.9275 C.2     1  UNL1        0.0673
     34 O         143.7958  140.1260  161.5560 O.co2   1  UNL1       -0.5477
     35 O         144.0487  137.5492  161.3406 O.co2   1  UNL1       -0.5477
@<TRIPOS>UNITY_ATOM_ATTR
34 1
charge -1
@<TRIPOS>BOND
     1    24    25    1
     2    25    23    1
     3    23    21    1
     4    21    22    2
     5    21     1    1
     6     1     2    2
     7     2    26    1
     8    26    27    1
     9    27    28    1
    10    28    29    1
    11    29    30    1
    12    30    31    1
    13    31    32    1
    14    32    33    1
    15    33    34   ar
    16    33    35   ar
    17     2     3    1
    18     3     4    1
    19     4    16    1
    20    16    17   ar
    21    17    18   ar
    22    18    19   ar
    23    19    20   ar
    24     4     5    2
    25     5     6    1
    26     6     8    1
    27     8     9   ar
    28     9    10   ar
    29    10    11   ar
    30    11    12    1
    31    11    13   ar
    32    13    14   ar
    33    14    15    1
    34     6     1    1
    35    14     8   ar
    36    32    27    1
    37    20    16   ar
    38     3     7    1
@<TRIPOS>MOLECULE
*****
 35 38 0 0 0
SMALL
GASTEIGER

@<TRIPOS>ATOM
      1 C         142.1308  140.5200  164.2525 C.2     1  UNL1        0.1397
      2 C         142.0327  140.5221  162.7557 C.2     1  UNL1        0.1355
      3 N         141.5512  141.7477  162.0374 N.pl3   1  UNL1       -0.1998
      4 C         141.1678  142.9712  162.8159 C.2     1  UNL1        0.3442
      5 N         141.2659  142.9691  164.3126 N.2     1  UNL1       -0.0580
      6 C         141.7475  141.7435  165.0309 C.3     1  UNL1        0.2695
      7 H         141.4867  141.7491  161.0550 H       1  UNL1        0.2983
      8 C         141.8456  141.7414  166.5278 C.ar    1  UNL1        0.0415
      9 C         143.0923  142.2376  167.1983 C.ar    1  UNL1        0.0034
     10 C         143.1904  142.2355  168.6950 C.ar    1  UNL1        0.0295
     11 C         142.0419  141.7372  169.5213 C.ar    1  UNL1        0.1410
     12 F         142.1401  141.7352  171.0181 F       1  UNL1       -0.2041
     13 C         140.7952  141.2410  168.8508 C.ar    1  UNL1        0.0408
     14 C         140.6971  141.2431  167.3540 C.ar    1  UNL1        0.0603
     15 CL        139.4504  140.7469  166.6834 Cl      1  UNL1       -0.0824
     16 C         140.6862  144.1968  162.0976 C.ar    1  UNL1        0.1931
     17 N         140.8836  144.5003  160.6419 N.ar    1  UNL1       -0.2297
     18 C         140.2421  145.8252  160.3535 C.ar    1  UNL1        0.1067
     19 C         139.6483  146.3406  161.6309 C.ar    1  UNL1        0.0577
     20 S         139.9228  145.3342  162.7088 S.2     1  UNL1       -0.0586
     21 C         142.6124  139.2943  164.9708 C.2     1  UNL1        0.3447
     22 O         144.0816  139.0763  165.1800 O.2     1  UNL1       -0.2450
     23 O         141.6247  138.2868  165.4798 O.3     1  UNL1       -0.4455
     24 C         139.1564  137.5594  165.1213 C.3     1  UNL1        0.0513
     25 C         140.5373  137.7809  164.5789 C.3     1  UNL1        0.2089
     26 C         142.4161  139.2986  161.9772 C.3     1  UNL1        0.1407
     27 N         142.2370  139.2704  160.4882 N.3     1  UNL1       -0.2584
     28 C         143.4282  139.4067  159.5868 C.3     1  UNL1        0.1052
     29 C         143.2490  139.3786  158.0978 C.3     1  UNL1        0.1595
     30 O         141.8788  139.2140  157.5102 O.3     1  UNL1       -0.3505
     31 C         140.6876  139.0777  158.4116 C.3     1  UNL1        0.1637
     32 C         140.8667  139.1058  159.9006 C.3     1  UNL1        0.1247
     33 C         139.6755  138.9695  160.8020 C.2     1  UNL1        0.0673
     34 O         138.8938  140.1859  161.2009 O.co2   1  UNL1       -0.5477
     35 O         139.2661  137.6167  161.3044 O.co2   1  UNL1       -0.5477
@<TRIPOS>UNITY_ATOM_ATTR
34 1
charge -1
@<TRIPOS>BOND
     1    24    25    1
     2    25    23    1
     3    23    21    1
     4    21    22    2
     5    21     1    1
     6     1     2    2
     7     2    26    1
     8    26    27    1
     9    27    28    1
    10    28    29    1
    11    29    30    1
    12    30    31    1
    13    31    32    1
    14    32    33    1
    15    33    34   ar
    16    33    35   ar
    17     2     3    1
    18     3     4    1
    19     4    16    1
    20    16    17   ar
    21    17    18   ar
    22    18    19   ar
    23    19    20   ar
    24     4     5    2
    25     5     6    1
    26     6     8    1
    27     8     9   ar
    28     9    10   ar
    29    10    11   ar
    30    11    12    1
    31    11    13   ar
    32    13    14   ar
    33    14    15    1
    34     6     1    1
    35    14     8   ar
    36    32    27    1
    37    20    16   ar
    38     3     7    1
@<TRIPOS>MOLECULE
*****
 35 38 0 0 0
SMALL
GASTEIGER

@<TRIPOS>ATOM
      1 C         140.9758  140.4000  164.7226 C.2     1  UNL1        0.1397
      2 C         140.6782  140.2652  163.2587 C.2     1  UNL1        0.1355
      3 N         140.4719  141.4911  162.4193 N.pl3   1  UNL1       -0.1998
      4 C         140.5631  142.8518  163.0438 C.2     1  UNL1        0.3442
      5 N         140.8607  142.9866  164.5078 N.2     1  UNL1       -0.0580
      6 C         141.0670  141.7607  165.3472 C.3     1  UNL1        0.2695
      7 H         140.2766  141.4026  161.4584 H       1  UNL1        0.2983
      8 C         141.3646  141.8956  166.8112 C.ar    1  UNL1        0.0415
      9 C         140.2879  141.6347  167.8225 C.ar    1  UNL1        0.0034
     10 C         140.5854  141.7696  169.2865 C.ar    1  UNL1        0.0295
     11 C         141.9597  142.1653  169.7392 C.ar    1  UNL1        0.1410
     12 F         142.2572  142.3001  171.2032 F       1  UNL1       -0.2041
     13 C         143.0364  142.4261  168.7279 C.ar    1  UNL1        0.0408
     14 C         142.7388  142.2913  167.2639 C.ar    1  UNL1        0.0603
     15 CL        143.8155  142.5521  166.2526 Cl      1  UNL1       -0.0824
     16 C         140.3568  144.0777  162.2044 C.ar    1  UNL1        0.1931
     17 N         140.7408  144.2340  160.7628 N.ar    1  UNL1       -0.2297
     18 C         140.3516  145.6154  160.3266 C.ar    1  UNL1        0.1067
     19 C         139.7270  146.3128  161.4986 C.ar    1  UNL1        0.0577
     20 S         139.7302  145.3624  162.6591 S.2     1  UNL1       -0.0586
     21 C         141.1821  139.1741  165.5621 C.2     1  UNL1        0.3447
     22 O         140.0855  138.6889  166.4632 O.2     1  UNL1       -0.2450
     23 O         142.4849  138.4334  165.5003 O.3     1  UNL1       -0.4455
     24 C         144.4239  139.3418  164.0288 C.3     1  UNL1        0.0513
     25 C         143.7731  139.1910  165.3719 C.3     1  UNL1        0.2089
     26 C         140.5869  138.9044  162.6341 C.3     1  UNL1        0.1407
     27 N         140.6743  138.7557  161.1440 N.3     1  UNL1       -0.2584
     28 C         141.9904  138.4390  160.4978 C.3     1  UNL1        0.1052
     29 C         142.0777  138.2904  159.0077 C.3     1  UNL1        0.1595
     30 O         140.8491  138.4584  158.1639 O.3     1  UNL1       -0.3505
     31 C         139.5330  138.7751  158.8101 C.3     1  UNL1        0.1637
     32 C         139.4456  138.9238  160.3002 C.3     1  UNL1        0.1247
     33 C         138.1295  139.2405  160.9464 C.2     1  UNL1        0.0673
     34 O         137.2918  138.1372  161.5220 O.co2   1  UNL1       -0.5477
     35 O         137.6511  140.6603  161.0171 O.co2   1  UNL1       -0.5477
@<TRIPOS>UNITY_ATOM_ATTR
34 1
charge -1
@<TRIPOS>BOND
     1    24    25    1
     2    25    23    1
     3    23    21    1
     4    21    22    2
     5    21     1    1
     6     1     2    2
     7     2    26    1
     8    26    27    1
     9    27    28    1
    10    28    29    1
    11    29    30    1
    12    30    31    1
    13    31    32    1
    14    32    33    1
    15    33    34   ar
    16    33    35   ar
    17     2     3    1
    18     3     4    1
    19     4    16    1
    20    16    17   ar
    21    17    18   ar
    22    18    19   ar
    23    19    20   ar
    24     4     5    2
    25     5     6    1
    26     6     8    1
    27     8     9   ar
    28     9    10   ar
    29    10    11   ar
    30    11    12    1
    31    11    13   ar
    32    13    14   ar
    33    14    15    1
    34     6     1    1
    35    14     8   ar
    36    32    27    1
    37    20    16   ar
    38     3     7    1
@<TRIPOS>MOLECULE
*****
 35 38 0 0 0
SMALL
GASTEIGER

@<TRIPOS>ATOM
      1 C         142.9104  140.3857  159.4627 C.2     1  UNL1        0.1397
      2 C         143.2918  139.3874  158.4101 C.2     1  UNL1        0.1355
      3 N         144.3030  139.7505  157.3634 N.pl3   1  UNL1       -0.1998
      4 C         144.9328  141.1118  157.3692 C.2     1  UNL1        0.3442
      5 N         144.5515  142.1100  158.4218 N.2     1  UNL1       -0.0580
      6 C         143.5402  141.7470  159.4685 C.3     1  UNL1        0.2695
      7 H         144.5533  139.0952  156.6725 H       1  UNL1        0.2983
      8 C         143.1589  142.7454  160.5212 C.ar    1  UNL1        0.0415
      9 C         141.9676  143.6335  160.3160 C.ar    1  UNL1        0.0034
     10 C         141.5863  144.6318  161.3685 C.ar    1  UNL1        0.0295
     11 C         142.3961  144.7420  162.6263 C.ar    1  UNL1        0.1410
     12 F         142.0148  145.7403  163.6788 F       1  UNL1       -0.2041
     13 C         143.5874  143.8539  162.8315 C.ar    1  UNL1        0.0408
     14 C         143.9687  142.8555  161.7789 C.ar    1  UNL1        0.0603
     15 CL        145.1600  141.9673  161.9841 Cl      1  UNL1       -0.0824
     16 C         145.9441  141.4748  156.3225 C.ar    1  UNL1        0.1931
     17 N         147.1271  142.3767  156.5147 N.ar    1  UNL1       -0.2297
     18 C         147.8640  142.4590  155.2108 C.ar    1  UNL1        0.1067
     19 C         147.1364  141.6080  154.2127 C.ar    1  UNL1        0.0577
     20 S         145.9498  140.9997  154.8998 S.2     1  UNL1       -0.0586
     21 C         141.8992  140.0227  160.5094 C.2     1  UNL1        0.3447
     22 O         140.4352  140.1866  160.2268 O.2     1  UNL1       -0.2450
     23 O         142.3519  139.4956  161.8388 O.3     1  UNL1       -0.4455
     24 C         141.1844  141.1567  163.4598 C.3     1  UNL1        0.0513
     25 C         141.5287  139.7507  163.0665 C.3     1  UNL1        0.2089
     26 C         142.6619  138.0260  158.4042 C.3     1  UNL1        0.1407
     27 N         141.7253  137.6378  157.2988 N.3     1  UNL1       -0.2584
     28 C         140.3021  138.1111  157.3207 C.3     1  UNL1        0.1052
     29 C         139.3654  137.7228  156.2152 C.3     1  UNL1        0.1595
     30 O         139.8520  136.8612  155.0879 O.3     1  UNL1       -0.3505
     31 C         141.2752  136.3879  155.0660 C.3     1  UNL1        0.1637
     32 C         142.2118  136.7761  156.1714 C.3     1  UNL1        0.1247
     33 C         143.6350  136.3028  156.1495 C.2     1  UNL1        0.0673
     34 O         143.9680  134.9072  156.5872 O.co2   1  UNL1       -0.5477
     35 O         144.7251  137.2249  155.6899 O.co2   1  UNL1       -0.5477
@<TRIPOS>UNITY_ATOM_ATTR
34 1
charge -1
@<TRIPOS>BOND
     1    24    25    1
     2    25    23    1
     3    23    21    1
     4    21    22    2
     5    21     1    1
     6     1     2    2
     7     2    26    1
     8    26    27    1
     9    27    28    1
    10    28    29    1
    11    29    30    1
    12    30    31    1
    13    31    32    1
    14    32    33    1
    15    33    34   ar
    16    33    35   ar
    17     2     3    1
    18     3     4    1
    19     4    16    1
    20    16    17   ar
    21    17    18   ar
    22    18    19   ar
    23    19    20   ar
    24     4     5    2
    25     5     6    1
    26     6     8    1
    27     8     9   ar
    28     9    10   ar
    29    10    11   ar
    30    11    12    1
    31    11    13   ar
    32    13    14   ar
    33    14    15    1
    34     6     1    1
    35    14     8   ar
    36    32    27    1
    37    20    16   ar
    38     3     7    1
@<TRIPOS>MOLECULE
*****
 35 38 0 0 0
SMALL
GASTEIGER

@<TRIPOS>ATOM
      1 C         141.7580  143.1417  160.4589 C.2     1  UNL1        0.1397
      2 C         142.5894  143.0777  159.2120 C.2     1  UNL1        0.1355
      3 N         142.2287  143.9221  158.0259 N.pl3   1  UNL1       -0.1998
      4 C         141.0366  144.8305  158.0866 C.2     1  UNL1        0.3442
      5 N         140.2052  144.8944  159.3335 N.2     1  UNL1       -0.0580
      6 C         140.5659  144.0500  160.5196 C.3     1  UNL1        0.2695
      7 H         142.7744  143.8801  157.2075 H       1  UNL1        0.2983
      8 C         139.7345  144.1140  161.7665 C.ar    1  UNL1        0.0415
      9 C         140.1162  145.0495  162.8752 C.ar    1  UNL1        0.0034
     10 C         139.2848  145.1135  164.1221 C.ar    1  UNL1        0.0295
     11 C         138.0717  144.2421  164.2602 C.ar    1  UNL1        0.1410
     12 F         137.2403  144.3061  165.5071 F       1  UNL1       -0.2041
     13 C         137.6900  143.3066  163.1515 C.ar    1  UNL1        0.0408
     14 C         138.5214  143.2426  161.9046 C.ar    1  UNL1        0.0603
     15 CL        138.1398  142.3072  160.7958 Cl      1  UNL1       -0.0824
     16 C         140.6759  145.6749  156.9005 C.ar    1  UNL1        0.1931
     17 N         139.6632  146.7813  156.8811 N.ar    1  UNL1       -0.2297
     18 C         139.6260  147.3513  155.4941 C.ar    1  UNL1        0.1067
     19 C         140.6156  146.5972  154.6563 C.ar    1  UNL1        0.0577
     20 S         141.2645  145.5611  155.5255 S.2     1  UNL1       -0.0586
     21 C         142.1188  142.2973  161.6450 C.2     1  UNL1        0.3447
     22 O         141.4029  141.0020  161.8890 O.2     1  UNL1       -0.2450
     23 O         143.1954  142.7482  162.5870 O.3     1  UNL1       -0.4455
     24 C         143.6772  145.0064  163.7780 C.3     1  UNL1        0.0513
     25 C         143.6911  144.1631  162.5375 C.3     1  UNL1        0.2089
     26 C         143.7816  142.1693  159.1512 C.3     1  UNL1        0.1407
     27 N         143.7071  140.8846  158.3806 N.3     1  UNL1       -0.2584
     28 C         143.0531  139.6807  158.9910 C.3     1  UNL1        0.1052
     29 C         142.9786  138.3959  158.2202 C.3     1  UNL1        0.1595
     30 O         143.5582  138.3152  156.8391 O.3     1  UNL1       -0.3505
     31 C         144.2122  139.5192  156.2287 C.3     1  UNL1        0.1637
     32 C         144.2867  140.8039  156.9993 C.3     1  UNL1        0.1247
     33 C         144.9407  142.0079  156.3889 C.2     1  UNL1        0.0673
     34 O         144.1103  143.0272  155.6666 O.co2   1  UNL1       -0.5477
     35 O         146.4250  142.1927  156.5006 O.co2   1  UNL1       -0.5477
@<TRIPOS>UNITY_ATOM_ATTR
34 1
charge -1
@<TRIPOS>BOND
     1    24    25    1
     2    25    23    1
     3    23    21    1
     4    21    22    2
     5    21     1    1
     6     1     2    2
     7     2    26    1
     8    26    27    1
     9    27    28    1
    10    28    29    1
    11    29    30    1
    12    30    31    1
    13    31    32    1
    14    32    33    1
    15    33    34   ar
    16    33    35   ar
    17     2     3    1
    18     3     4    1
    19     4    16    1
    20    16    17   ar
    21    17    18   ar
    22    18    19   ar
    23    19    20   ar
    24     4     5    2
    25     5     6    1
    26     6     8    1
    27     8     9   ar
    28     9    10   ar
    29    10    11   ar
    30    11    12    1
    31    11    13   ar
    32    13    14   ar
    33    14    15    1
    34     6     1    1
    35    14     8   ar
    36    32    27    1
    37    20    16   ar
    38     3     7    1
@<TRIPOS>MOLECULE
*****
 35 38 0 0 0
SMALL
GASTEIGER

@<TRIPOS>ATOM
      1 C         139.6617  141.1572  161.0180 C.2     1  UNL1        0.1397
      2 C         139.8092  140.4159  159.7224 C.2     1  UNL1        0.1355
      3 N         139.3593  141.0503  158.4399 N.pl3   1  UNL1       -0.1998
      4 C         138.7620  142.4262  158.4529 C.2     1  UNL1        0.3442
      5 N         138.6145  143.1675  159.7485 N.2     1  UNL1       -0.0580
      6 C         139.0644  142.5330  161.0310 C.3     1  UNL1        0.2695
      7 H         139.4561  140.5638  157.5895 H       1  UNL1        0.2983
      8 C         138.9169  143.2744  162.3267 C.ar    1  UNL1        0.0415
      9 C         137.7249  143.0244  163.2023 C.ar    1  UNL1        0.0034
     10 C         137.5774  143.7658  164.4979 C.ar    1  UNL1        0.0295
     11 C         138.6218  144.7572  164.9179 C.ar    1  UNL1        0.1410
     12 F         138.4743  145.4986  166.2135 F       1  UNL1       -0.2041
     13 C         139.8138  145.0072  164.0423 C.ar    1  UNL1        0.0408
     14 C         139.9613  144.2658  162.7466 C.ar    1  UNL1        0.0603
     15 CL        141.1532  144.5158  161.8710 Cl      1  UNL1       -0.0824
     16 C         138.3121  143.0607  157.1703 C.ar    1  UNL1        0.1931
     17 N         137.0040  142.8175  156.4776 N.ar    1  UNL1       -0.2297
     18 C         136.9747  143.6562  155.2344 C.ar    1  UNL1        0.1067
     19 C         138.2648  144.4178  155.1587 C.ar    1  UNL1        0.0577
     20 S         139.0913  144.0497  156.3551 S.2     1  UNL1       -0.0586
     21 C         140.1116  140.5227  162.3006 C.2     1  UNL1        0.3447
     22 O         139.2315  139.5245  162.9926 O.2     1  UNL1       -0.2450
     23 O         141.4416  140.8865  162.8912 O.3     1  UNL1       -0.4455
     24 C         140.9806  141.7373  165.3024 C.3     1  UNL1        0.0513
     25 C         141.6601  140.7774  164.3712 C.3     1  UNL1        0.2089
     26 C         140.4066  139.0400  159.7094 C.3     1  UNL1        0.1407
     27 N         140.9687  138.4784  158.4371 N.3     1  UNL1       -0.2584
     28 C         140.0863  137.7006  157.5063 C.3     1  UNL1        0.1052
     29 C         140.6485  137.1391  156.2340 C.3     1  UNL1        0.1595
     30 O         142.0930  137.3553  155.8926 O.3     1  UNL1       -0.3505
     31 C         142.9754  138.1331  156.8234 C.3     1  UNL1        0.1637
     32 C         142.4133  138.6947  158.0956 C.3     1  UNL1        0.1247
     33 C         143.2957  139.4725  159.0265 C.2     1  UNL1        0.0673
     34 O         144.0969  138.7569  160.0735 O.co2   1  UNL1       -0.5477
     35 O         143.3768  140.9657  158.9103 O.co2   1  UNL1       -0.5477
@<TRIPOS>UNITY_ATOM_ATTR
34 1
charge -1
@<TRIPOS>BOND
     1    24    25    1
     2    25    23    1
     3    23    21    1
     4    21    22    2
     5    21     1    1
     6     1     2    2
     7     2    26    1
     8    26    27    1
     9    27    28    1
    10    28    29    1
    11    29    30    1
    12    30    31    1
    13    31    32    1
    14    32    33    1
    15    33    34   ar
    16    33    35   ar
    17     2     3    1
    18     3     4    1
    19     4    16    1
    20    16    17   ar
    21    17    18   ar
    22    18    19   ar
    23    19    20   ar
    24     4     5    2
    25     5     6    1
    26     6     8    1
    27     8     9   ar
    28     9    10   ar
    29    10    11   ar
    30    11    12    1
    31    11    13   ar
    32    13    14   ar
    33    14    15    1
    34     6     1    1
    35    14     8   ar
    36    32    27    1
    37    20    16   ar
    38     3     7    1
