@<TRIPOS>MOLECULE
*****
 29 31 0 0 0
SMALL
GASTEIGER

@<TRIPOS>ATOM
      1 C         140.2984  144.0711  164.0686 C.ar    1  UNL1        0.0873
      2 S         141.4133  144.5213  163.1717 S.2     1  UNL1       -0.0433
      3 C         140.8077  145.0104  161.8894 C.ar    1  UNL1        0.1669
      4 N         139.3186  144.8625  161.9939 N.ar    1  UNL1       -0.2276
      5 C         139.0039  144.2820  163.3408 C.ar    1  UNL1        0.0750
      6 C         137.6351  143.9675  163.8673 C.3     1  UNL1        0.0534
      7 N         141.5592  145.5523  160.7097 N.am    1  UNL1       -0.2484
      8 C         141.2607  145.0416  159.3313 C.2     1  UNL1        0.3060
      9 O         140.2107  143.9889  159.1326 O.2     1  UNL1       -0.2524
     10 N         142.0123  145.5834  158.1517 N.am    1  UNL1       -0.2862
     11 H         142.2484  146.2431  160.8402 H       1  UNL1        0.1583
     12 H         142.7014  146.2743  158.2821 H       1  UNL1        0.1511
     13 C         141.7138  145.0727  156.7733 C.3     1  UNL1        0.1203
     14 C         140.8994  145.9029  155.8259 C.3     1  UNL1        0.1348
     15 C         141.1370  145.8047  154.3481 C.3     1  UNL1        0.0339
     16 O         139.8474  146.8312  156.3562 O.3     1  UNL1       -0.3545
     17 C         138.9169  147.5295  155.4094 C.3     1  UNL1        0.1420
     18 C         138.8304  149.0271  155.4107 C.3     1  UNL1        0.0297
     19 C         138.3481  150.2998  156.0411 C.3     1  UNL1        0.0026
     20 C         139.1627  150.3480  154.7826 C.3     1  UNL1        0.0026
     21 C         140.6043  142.9465  166.8330 C.1     1  UNL1       -0.0577
     22 C         140.4513  143.5088  165.4508 C.1     1  UNL1       -0.0519
     23 C         142.1630  139.1242  169.9890 C.3     1  UNL1        0.0327
     24 C         141.5366  140.4730  169.7932 C.ar    1  UNL1       -0.0021
     25 C         141.0631  141.2594  170.9794 C.ar    1  UNL1        0.0946
     26 N         140.4367  142.6082  170.7836 N.ar    1  UNL1       -0.2420
     27 C         140.2838  143.1706  169.4015 C.ar    1  UNL1        0.1070
     28 C         140.7572  142.3841  168.2152 C.ar    1  UNL1        0.0608
     29 C         141.3836  141.0353  168.4111 C.ar    1  UNL1        0.0071
@<TRIPOS>BOND
     1    23    24    1
     2    24    25   ar
     3    25    26   ar
     4    26    27   ar
     5    27    28   ar
     6    28    21    1
     7    21    22    3
     8    22     1    1
     9     1     2   ar
    10     2     3   ar
    11     3     7    1
    12     7     8   am
    13     8     9    2
    14     8    10   am
    15    10    13    1
    16    13    14    1
    17    14    15    1
    18    14    16    1
    19    16    17    1
    20    17    18    1
    21    18    19    1
    22    19    20    1
    23     3     4   ar
    24     4     5   ar
    25     5     6    1
    26    28    29   ar
    27    29    24   ar
    28     5     1   ar
    29    20    18    1
    30     7    11    1
    31    10    12    1
@<TRIPOS>MOLECULE
*****
 29 31 0 0 0
SMALL
GASTEIGER

@<TRIPOS>ATOM
      1 C         140.2108  144.0922  164.2838 C.ar    1  UNL1        0.0873
      2 S         141.2880  144.5733  163.3574 S.2     1  UNL1       -0.0433
      3 C         140.6315  145.0860  162.1098 C.ar    1  UNL1        0.1669
      4 N         139.1486  144.9216  162.2653 N.ar    1  UNL1       -0.2276
      5 C         138.8887  144.3075  163.6088 C.ar    1  UNL1        0.0750
      6 C         137.5429  143.9681  164.1777 C.3     1  UNL1        0.0534
      7 N         141.3345  145.6618  160.9163 N.am    1  UNL1       -0.2484
      8 C         141.1794  145.0166  159.5711 C.2     1  UNL1        0.3060
      9 O         140.3213  143.7957  159.4193 O.2     1  UNL1       -0.2524
     10 N         141.8823  145.5924  158.3776 N.am    1  UNL1       -0.2862
     11 H         141.8976  146.4631  161.0160 H       1  UNL1        0.1583
     12 H         142.4455  146.3938  158.4773 H       1  UNL1        0.1511
     13 C         141.7273  144.9474  157.0324 C.3     1  UNL1        0.1203
     14 C         140.9145  145.6210  155.9668 C.3     1  UNL1        0.1348
     15 C         141.3940  145.6212  154.5455 C.3     1  UNL1        0.0339
     16 O         139.6223  146.2945  156.3224 O.3     1  UNL1       -0.3545
     17 C         138.4999  146.3362  155.3282 C.3     1  UNL1        0.1420
     18 C         137.7172  145.0922  155.0281 C.3     1  UNL1        0.0297
     19 C         137.0878  144.1616  154.0342 C.3     1  UNL1        0.0026
     20 C         136.9909  143.8684  155.5021 C.3     1  UNL1        0.0026
     21 C         140.6278  142.9075  167.0082 C.1     1  UNL1       -0.0577
     22 C         140.4193  143.4999  165.6460 C.1     1  UNL1       -0.0519
     23 C         142.3407  139.0320  170.0159 C.3     1  UNL1        0.0327
     24 C         141.6928  140.3774  169.8743 C.ar    1  UNL1       -0.0021
     25 C         141.2533  141.1304  171.0948 C.ar    1  UNL1        0.0946
     26 N         140.6053  142.4758  170.9532 N.ar    1  UNL1       -0.2420
     27 C         140.3968  143.0682  169.5910 C.ar    1  UNL1        0.1070
     28 C         140.8363  142.3151  168.3705 C.ar    1  UNL1        0.0608
     29 C         141.4842  140.9697  168.5121 C.ar    1  UNL1        0.0071
@<TRIPOS>BOND
     1    23    24    1
     2    24    25   ar
     3    25    26   ar
     4    26    27   ar
     5    27    28   ar
     6    28    21    1
     7    21    22    3
     8    22     1    1
     9     1     2   ar
    10     2     3   ar
    11     3     7    1
    12     7     8   am
    13     8     9    2
    14     8    10   am
    15    10    13    1
    16    13    14    1
    17    14    15    1
    18    14    16    1
    19    16    17    1
    20    17    18    1
    21    18    19    1
    22    19    20    1
    23     3     4   ar
    24     4     5   ar
    25     5     6    1
    26    28    29   ar
    27    29    24   ar
    28     5     1   ar
    29    20    18    1
    30     7    11    1
    31    10    12    1
@<TRIPOS>MOLECULE
*****
 29 31 0 0 0
SMALL
GASTEIGER

@<TRIPOS>ATOM
      1 C         139.4289  139.1879  164.3946 C.ar    1  UNL1        0.0873
      2 S         138.4368  139.8426  163.4796 S.2     1  UNL1       -0.0433
      3 C         138.2950  138.9830  162.2585 C.ar    1  UNL1        0.1669
      4 N         139.1996  137.7972  162.4188 N.ar    1  UNL1       -0.2276
      5 C         139.9004  137.9239  163.7390 C.ar    1  UNL1        0.0750
      6 C         140.8975  136.9564  164.3043 C.3     1  UNL1        0.0534
      7 N         137.4050  139.2605  161.0834 N.am    1  UNL1       -0.2484
      8 C         137.9569  139.9498  159.8708 C.2     1  UNL1        0.3060
      9 O         139.3989  140.3615  159.8334 O.2     1  UNL1       -0.2524
     10 N         137.0669  140.2273  158.6957 N.am    1  UNL1       -0.2862
     11 H         136.4587  138.9903  161.1080 H       1  UNL1        0.1583
     12 H         136.1206  139.9571  158.7203 H       1  UNL1        0.1511
     13 C         137.6188  140.9166  157.4832 C.3     1  UNL1        0.1203
     14 C         136.9519  140.7397  156.1513 C.3     1  UNL1        0.1348
     15 C         137.5154  141.4127  154.9350 C.3     1  UNL1        0.0339
     16 O         135.7214  139.8897  156.0357 O.3     1  UNL1       -0.3545
     17 C         134.3633  140.5183  156.1382 C.3     1  UNL1        0.1420
     18 C         133.2561  139.7998  156.8510 C.3     1  UNL1        0.0297
     19 C         131.7916  139.5532  157.0612 C.3     1  UNL1        0.0026
     20 C         132.8031  138.8022  157.8753 C.3     1  UNL1        0.0026
     21 C         140.3148  140.2250  167.0666 C.1     1  UNL1       -0.0577
     22 C         139.8719  139.7065  165.7307 C.1     1  UNL1       -0.0519
     23 C         143.9581  142.3970  170.0681 C.3     1  UNL1        0.0327
     24 C         142.5794  141.8295  169.9034 C.ar    1  UNL1       -0.0021
     25 C         141.6436  141.7805  171.0747 C.ar    1  UNL1        0.0946
     26 N         140.2649  141.2130  170.9100 N.ar    1  UNL1       -0.2420
     27 C         139.8220  140.6945  169.5740 C.ar    1  UNL1        0.1070
     28 C         140.7577  140.7435  168.4027 C.ar    1  UNL1        0.0608
     29 C         142.1364  141.3110  168.5674 C.ar    1  UNL1        0.0071
@<TRIPOS>BOND
     1    23    24    1
     2    24    25   ar
     3    25    26   ar
     4    26    27   ar
     5    27    28   ar
     6    28    21    1
     7    21    22    3
     8    22     1    1
     9     1     2   ar
    10     2     3   ar
    11     3     7    1
    12     7     8   am
    13     8     9    2
    14     8    10   am
    15    10    13    1
    16    13    14    1
    17    14    15    1
    18    14    16    1
    19    16    17    1
    20    17    18    1
    21    18    19    1
    22    19    20    1
    23     3     4   ar
    24     4     5   ar
    25     5     6    1
    26    28    29   ar
    27    29    24   ar
    28     5     1   ar
    29    20    18    1
    30     7    11    1
    31    10    12    1
@<TRIPOS>MOLECULE
*****
 29 31 0 0 0
SMALL
GASTEIGER

@<TRIPOS>ATOM
      1 C         140.2355  143.9938  164.5147 C.ar    1  UNL1        0.0873
      2 S         141.3390  144.3787  163.5744 S.2     1  UNL1       -0.0433
      3 C         140.7174  145.0105  162.3641 C.ar    1  UNL1        0.1669
      4 N         139.2297  145.0160  162.5566 N.ar    1  UNL1       -0.2276
      5 C         138.9319  144.3877  163.8857 C.ar    1  UNL1        0.0750
      6 C         137.5698  144.1883  164.4813 C.3     1  UNL1        0.0534
      7 N         141.4540  145.5431  161.1710 N.am    1  UNL1       -0.2484
      8 C         141.2193  144.9443  159.8159 C.2     1  UNL1        0.3060
      9 O         140.2479  143.8129  159.6540 O.2     1  UNL1       -0.2524
     10 N         141.9560  145.4770  158.6227 N.am    1  UNL1       -0.2862
     11 H         142.0916  146.2857  161.2773 H       1  UNL1        0.1583
     12 H         142.5935  146.2196  158.7291 H       1  UNL1        0.1511
     13 C         141.7213  144.8783  157.2677 C.3     1  UNL1        0.1203
     14 C         142.5938  143.7595  156.7807 C.3     1  UNL1        0.1348
     15 C         143.0393  143.7246  155.3488 C.3     1  UNL1        0.0339
     16 O         143.0207  142.6756  157.7256 O.3     1  UNL1       -0.3545
     17 C         144.3862  142.7155  158.3450 C.3     1  UNL1        0.1420
     18 C         145.6007  142.4688  157.4998 C.3     1  UNL1        0.0297
     19 C         147.0543  142.7043  157.2143 C.3     1  UNL1        0.0026
     20 C         146.2506  141.8061  156.3216 C.3     1  UNL1        0.0026
     21 C         140.5759  142.6689  167.1847 C.1     1  UNL1       -0.0577
     22 C         140.4057  143.3313  165.8497 C.1     1  UNL1       -0.0519
     23 C         142.5213  138.8196  170.0827 C.3     1  UNL1        0.0327
     24 C         141.7189  140.0818  169.9687 C.ar    1  UNL1       -0.0021
     25 C         141.0867  140.6815  171.1896 C.ar    1  UNL1        0.0946
     26 N         140.2843  141.9437  171.0756 N.ar    1  UNL1       -0.2420
     27 C         140.1140  142.6062  169.7406 C.ar    1  UNL1        0.1070
     28 C         140.7462  142.0065  168.5197 C.ar    1  UNL1        0.0608
     29 C         141.5486  140.7443  168.6337 C.ar    1  UNL1        0.0071
@<TRIPOS>BOND
     1    23    24    1
     2    24    25   ar
     3    25    26   ar
     4    26    27   ar
     5    27    28   ar
     6    28    21    1
     7    21    22    3
     8    22     1    1
     9     1     2   ar
    10     2     3   ar
    11     3     7    1
    12     7     8   am
    13     8     9    2
    14     8    10   am
    15    10    13    1
    16    13    14    1
    17    14    15    1
    18    14    16    1
    19    16    17    1
    20    17    18    1
    21    18    19    1
    22    19    20    1
    23     3     4   ar
    24     4     5   ar
    25     5     6    1
    26    28    29   ar
    27    29    24   ar
    28     5     1   ar
    29    20    18    1
    30     7    11    1
    31    10    12    1
@<TRIPOS>MOLECULE
*****
 29 31 0 0 0
SMALL
GASTEIGER

@<TRIPOS>ATOM
      1 C         141.4442  138.5774  164.3077 C.ar    1  UNL1        0.0873
      2 S         142.5336  138.5275  163.2777 S.2     1  UNL1       -0.0433
      3 C         142.0321  137.7292  162.1110 C.ar    1  UNL1        0.1669
      4 N         140.6328  137.2857  162.4199 N.ar    1  UNL1       -0.2276
      5 C         140.2695  137.8100  163.7776 C.ar    1  UNL1        0.0750
      6 C         138.9612  137.6031  164.4815 C.3     1  UNL1        0.0534
      7 N         142.7958  137.4273  160.8557 N.am    1  UNL1       -0.2484
      8 C         142.3591  138.0235  159.5504 C.2     1  UNL1        0.3060
      9 O         141.1586  138.9215  159.5004 O.2     1  UNL1       -0.2524
     10 N         143.1228  137.7216  158.2952 N.am    1  UNL1       -0.2862
     11 H         143.5837  136.8379  160.8886 H       1  UNL1        0.1583
     12 H         143.9106  137.1322  158.3280 H       1  UNL1        0.1511
     13 C         142.6861  138.3177  156.9899 C.3     1  UNL1        0.1203
     14 C         143.4879  139.4195  156.3630 C.3     1  UNL1        0.1348
     15 C         143.0079  140.0714  155.1002 C.3     1  UNL1        0.0339
     16 O         144.7697  139.8695  156.9988 O.3     1  UNL1       -0.3545
     17 C         145.0426  141.3331  157.1822 C.3     1  UNL1        0.1420
     18 C         146.3195  141.9282  156.6671 C.3     1  UNL1        0.0297
     19 C         147.3334  142.0793  155.5720 C.3     1  UNL1        0.0026
     20 C         147.5173  142.8080  156.8701 C.3     1  UNL1        0.0026
     21 C         141.5895  139.9681  166.9619 C.1     1  UNL1       -0.0577
     22 C         141.5169  139.2728  165.6348 C.1     1  UNL1       -0.0519
     23 C         140.4706  144.0567  169.9672 C.3     1  UNL1        0.0327
     24 C         141.1027  142.7078  169.7917 C.ar    1  UNL1       -0.0021
     25 C         141.8075  142.0542  170.9432 C.ar    1  UNL1        0.0946
     26 N         142.4396  140.7053  170.7677 N.ar    1  UNL1       -0.2420
     27 C         142.3670  140.0099  169.4406 C.ar    1  UNL1        0.1070
     28 C         141.6622  140.6635  168.2891 C.ar    1  UNL1        0.0608
     29 C         141.0301  142.0124  168.4646 C.ar    1  UNL1        0.0071
@<TRIPOS>BOND
     1    23    24    1
     2    24    25   ar
     3    25    26   ar
     4    26    27   ar
     5    27    28   ar
     6    28    21    1
     7    21    22    3
     8    22     1    1
     9     1     2   ar
    10     2     3   ar
    11     3     7    1
    12     7     8   am
    13     8     9    2
    14     8    10   am
    15    10    13    1
    16    13    14    1
    17    14    15    1
    18    14    16    1
    19    16    17    1
    20    17    18    1
    21    18    19    1
    22    19    20    1
    23     3     4   ar
    24     4     5   ar
    25     5     6    1
    26    28    29   ar
    27    29    24   ar
    28     5     1   ar
    29    20    18    1
    30     7    11    1
    31    10    12    1
@<TRIPOS>MOLECULE
*****
 29 31 0 0 0
SMALL
GASTEIGER

@<TRIPOS>ATOM
      1 C         141.5073  138.5665  164.3087 C.ar    1  UNL1        0.0873
      2 S         142.6173  138.5990  163.3003 S.2     1  UNL1       -0.0433
      3 C         142.1808  137.8049  162.1049 C.ar    1  UNL1        0.1669
      4 N         140.8011  137.2817  162.3745 N.ar    1  UNL1       -0.2276
      5 C         140.3848  137.7524  163.7366 C.ar    1  UNL1        0.0750
      6 C         139.0760  137.4604  164.4085 C.3     1  UNL1        0.0534
      7 N         142.9832  137.5745  160.8586 N.am    1  UNL1       -0.2484
      8 C         142.3791  137.8562  159.5149 C.2     1  UNL1        0.3060
      9 O         140.9726  138.3684  159.4174 O.2     1  UNL1       -0.2524
     10 N         143.1814  137.6258  158.2686 N.am    1  UNL1       -0.2862
     11 H         143.9063  137.2383  160.9227 H       1  UNL1        0.1583
     12 H         144.1046  137.2896  158.3327 H       1  UNL1        0.1511
     13 C         142.5774  137.9075  156.9250 C.3     1  UNL1        0.1203
     14 C         142.0065  136.7856  156.1092 C.3     1  UNL1        0.1348
     15 C         141.0598  137.0826  154.9842 C.3     1  UNL1        0.0339
     16 O         142.3823  135.3668  156.4183 O.3     1  UNL1       -0.3545
     17 C         143.7304  134.8440  156.0193 C.3     1  UNL1        0.1420
     18 C         144.2611  133.5861  156.6408 C.3     1  UNL1        0.0297
     19 C         144.7296  132.8320  157.8498 C.3     1  UNL1        0.0026
     20 C         144.7117  132.1616  156.5082 C.3     1  UNL1        0.0026
     21 C         141.5286  139.8964  166.9978 C.1     1  UNL1       -0.0577
     22 C         141.5179  139.2315  165.6533 C.1     1  UNL1       -0.0519
     23 C         140.4969  144.0194  169.9872 C.3     1  UNL1        0.0327
     24 C         141.0234  142.6228  169.8370 C.ar    1  UNL1       -0.0021
     25 C         141.5605  141.8913  171.0313 C.ar    1  UNL1        0.0946
     26 N         142.0870  140.4948  170.8811 N.ar    1  UNL1       -0.2420
     27 C         142.0764  139.8298  169.5366 C.ar    1  UNL1        0.1070
     28 C         141.5393  140.5614  168.3423 C.ar    1  UNL1        0.0608
     29 C         141.0128  141.9579  168.4926 C.ar    1  UNL1        0.0071
@<TRIPOS>BOND
     1    23    24    1
     2    24    25   ar
     3    25    26   ar
     4    26    27   ar
     5    27    28   ar
     6    28    21    1
     7    21    22    3
     8    22     1    1
     9     1     2   ar
    10     2     3   ar
    11     3     7    1
    12     7     8   am
    13     8     9    2
    14     8    10   am
    15    10    13    1
    16    13    14    1
    17    14    15    1
    18    14    16    1
    19    16    17    1
    20    17    18    1
    21    18    19    1
    22    19    20    1
    23     3     4   ar
    24     4     5   ar
    25     5     6    1
    26    28    29   ar
    27    29    24   ar
    28     5     1   ar
    29    20    18    1
    30     7    11    1
    31    10    12    1
@<TRIPOS>MOLECULE
*****
 29 31 0 0 0
SMALL
GASTEIGER

@<TRIPOS>ATOM
      1 C         139.3036  139.1785  164.4526 C.ar    1  UNL1        0.0873
      2 S         138.3090  139.8033  163.5195 S.2     1  UNL1       -0.0433
      3 C         138.2594  138.9728  162.2713 C.ar    1  UNL1        0.1669
      4 N         139.2232  137.8348  162.4331 N.ar    1  UNL1       -0.2276
      5 C         139.8686  137.9620  163.7812 C.ar    1  UNL1        0.0750
      6 C         140.8981  137.0354  164.3568 C.3     1  UNL1        0.0534
      7 N         137.3973  139.2343  161.0720 N.am    1  UNL1       -0.2484
      8 C         137.9744  139.9185  159.8683 C.2     1  UNL1        0.3060
      9 O         139.4136  140.3412  159.8641 O.2     1  UNL1       -0.2524
     10 N         137.1123  140.1801  158.6690 N.am    1  UNL1       -0.2862
     11 H         136.4527  138.9569  161.0748 H       1  UNL1        0.1583
     12 H         136.1677  139.9026  158.6719 H       1  UNL1        0.1511
     13 C         137.6893  140.8643  157.4654 C.3     1  UNL1        0.1203
     14 C         137.6984  142.3621  157.3866 C.3     1  UNL1        0.1348
     15 C         137.1378  143.0530  156.1789 C.3     1  UNL1        0.0339
     16 O         138.2681  143.1692  158.5153 O.3     1  UNL1       -0.3545
     17 C         139.7070  143.5917  158.4837 C.3     1  UNL1        0.1420
     18 C         140.1344  144.7334  157.6096 C.3     1  UNL1        0.0297
     19 C         140.0823  145.4527  156.2944 C.3     1  UNL1        0.0026
     20 C         140.9268  145.9913  157.4109 C.3     1  UNL1        0.0026
     21 C         140.0343  140.1855  167.1825 C.1     1  UNL1       -0.0577
     22 C         139.6689  139.6820  165.8176 C.1     1  UNL1       -0.0519
     23 C         143.2225  142.8729  170.2831 C.3     1  UNL1        0.0327
     24 C         141.9938  142.0327  170.0977 C.ar    1  UNL1       -0.0021
     25 C         141.1304  141.6960  171.2772 C.ar    1  UNL1        0.0946
     26 N         139.9017  140.8558  171.0918 N.ar    1  UNL1       -0.2420
     27 C         139.5364  140.3523  169.7269 C.ar    1  UNL1        0.1070
     28 C         140.3997  140.6890  168.5474 C.ar    1  UNL1        0.0608
     29 C         141.6284  141.5292  168.7328 C.ar    1  UNL1        0.0071
@<TRIPOS>BOND
     1    23    24    1
     2    24    25   ar
     3    25    26   ar
     4    26    27   ar
     5    27    28   ar
     6    28    21    1
     7    21    22    3
     8    22     1    1
     9     1     2   ar
    10     2     3   ar
    11     3     7    1
    12     7     8   am
    13     8     9    2
    14     8    10   am
    15    10    13    1
    16    13    14    1
    17    14    15    1
    18    14    16    1
    19    16    17    1
    20    17    18    1
    21    18    19    1
    22    19    20    1
    23     3     4   ar
    24     4     5   ar
    25     5     6    1
    26    28    29   ar
    27    29    24   ar
    28     5     1   ar
    29    20    18    1
    30     7    11    1
    31    10    12    1
@<TRIPOS>MOLECULE
*****
 29 31 0 0 0
SMALL
GASTEIGER

@<TRIPOS>ATOM
      1 C         142.6998  139.2779  164.0521 C.ar    1  UNL1        0.0873
      2 S         142.0906  138.3284  163.0636 S.2     1  UNL1       -0.0433
      3 C         143.0966  138.0802  161.9788 C.ar    1  UNL1        0.1669
      4 N         144.3274  138.8764  162.2972 N.ar    1  UNL1       -0.2276
      5 C         144.0821  139.6166  163.5785 C.ar    1  UNL1        0.0750
      6 C         145.0493  140.5344  164.2656 C.3     1  UNL1        0.0534
      7 N         142.9054  137.1919  160.7854 N.am    1  UNL1       -0.2484
      8 C         142.9348  137.7752  159.4038 C.2     1  UNL1        0.3060
      9 O         143.1555  139.2469  159.2157 O.2     1  UNL1       -0.2524
     10 N         142.7436  136.8868  158.2104 N.am    1  UNL1       -0.2862
     11 H         142.7606  136.2259  160.9090 H       1  UNL1        0.1583
     12 H         142.5988  135.9209  158.3339 H       1  UNL1        0.1511
     13 C         142.7730  137.4701  156.8289 C.3     1  UNL1        0.1203
     14 C         143.7832  136.9855  155.8315 C.3     1  UNL1        0.1348
     15 C         143.5438  135.7088  155.0814 C.3     1  UNL1        0.0339
     16 O         145.0327  137.7776  155.5842 O.3     1  UNL1       -0.3545
     17 C         144.9792  139.0209  154.7469 C.3     1  UNL1        0.1420
     18 C         145.5633  140.3011  155.2668 C.3     1  UNL1        0.0297
     19 C         146.7271  141.2378  155.4008 C.3     1  UNL1        0.0026
     20 C         145.4111  141.5814  156.0332 C.3     1  UNL1        0.0026
     21 C         141.3841  140.3171  166.5400 C.1     1  UNL1       -0.0577
     22 C         142.0419  139.7976  165.2961 C.1     1  UNL1       -0.0519
     23 C         140.6084  144.1592  169.9513 C.3     1  UNL1        0.0327
     24 C         140.3384  142.7578  169.4895 C.ar    1  UNL1       -0.0021
     25 C         139.4106  141.8760  170.2716 C.ar    1  UNL1        0.0946
     26 N         139.1406  140.4747  169.8098 N.ar    1  UNL1       -0.2420
     27 C         139.7984  139.9550  168.5660 C.ar    1  UNL1        0.1070
     28 C         140.7262  140.8368  167.7839 C.ar    1  UNL1        0.0608
     29 C         140.9962  142.2381  168.2457 C.ar    1  UNL1        0.0071
@<TRIPOS>BOND
     1    23    24    1
     2    24    25   ar
     3    25    26   ar
     4    26    27   ar
     5    27    28   ar
     6    28    21    1
     7    21    22    3
     8    22     1    1
     9     1     2   ar
    10     2     3   ar
    11     3     7    1
    12     7     8   am
    13     8     9    2
    14     8    10   am
    15    10    13    1
    16    13    14    1
    17    14    15    1
    18    14    16    1
    19    16    17    1
    20    17    18    1
    21    18    19    1
    22    19    20    1
    23     3     4   ar
    24     4     5   ar
    25     5     6    1
    26    28    29   ar
    27    29    24   ar
    28     5     1   ar
    29    20    18    1
    30     7    11    1
    31    10    12    1
@<TRIPOS>MOLECULE
*****
 29 31 0 0 0
SMALL
GASTEIGER

@<TRIPOS>ATOM
      1 C         140.5253  143.9523  163.6613 C.ar    1  UNL1        0.0873
      2 S         141.6768  144.1930  162.7306 S.2     1  UNL1       -0.0433
      3 C         141.1251  144.7093  161.4347 C.ar    1  UNL1        0.1669
      4 N         139.6328  144.7878  161.5647 N.ar    1  UNL1       -0.2276
      5 C         139.2621  144.3199  162.9408 C.ar    1  UNL1        0.0750
      6 C         137.8723  144.2345  163.4985 C.3     1  UNL1        0.0534
      7 N         141.9253  145.0819  160.2219 N.am    1  UNL1       -0.2484
      8 C         142.0618  144.1115  159.0862 C.2     1  UNL1        0.3060
      9 O         141.3980  142.7685  159.1635 O.2     1  UNL1       -0.2524
     10 N         142.8619  144.4840  157.8734 N.am    1  UNL1       -0.2862
     11 H         142.3609  145.9633  160.1713 H       1  UNL1        0.1583
     12 H         143.2976  145.3654  157.8228 H       1  UNL1        0.1511
     13 C         142.9984  143.5136  156.7379 C.3     1  UNL1        0.1203
     14 C         144.2274  142.6614  156.6231 C.3     1  UNL1        0.1348
     15 C         144.6944  141.8565  157.7996 C.3     1  UNL1        0.0339
     16 O         144.9894  142.6140  155.3320 O.3     1  UNL1       -0.3545
     17 C         146.4742  142.8272  155.3292 C.3     1  UNL1        0.1420
     18 C         147.1010  143.7249  154.3038 C.3     1  UNL1        0.0297
     19 C         147.1219  145.0231  153.5527 C.3     1  UNL1        0.0026
     20 C         148.1658  143.9814  153.2790 C.3     1  UNL1        0.0026
     21 C         140.7157  142.9174  166.4708 C.1     1  UNL1       -0.0577
     22 C         140.6205  143.4348  165.0661 C.1     1  UNL1       -0.0519
     23 C         142.1256  139.1929  169.8085 C.3     1  UNL1        0.0327
     24 C         141.5158  140.5377  169.5443 C.ar    1  UNL1       -0.0021
     25 C         141.0012  141.3650  170.6848 C.ar    1  UNL1        0.0946
     26 N         140.3914  142.7097  170.4206 N.ar    1  UNL1       -0.2420
     27 C         140.2962  143.2272  169.0160 C.ar    1  UNL1        0.1070
     28 C         140.8108  142.3999  167.8755 C.ar    1  UNL1        0.0608
     29 C         141.4206  141.0552  168.1397 C.ar    1  UNL1        0.0071
@<TRIPOS>BOND
     1    23    24    1
     2    24    25   ar
     3    25    26   ar
     4    26    27   ar
     5    27    28   ar
     6    28    21    1
     7    21    22    3
     8    22     1    1
     9     1     2   ar
    10     2     3   ar
    11     3     7    1
    12     7     8   am
    13     8     9    2
    14     8    10   am
    15    10    13    1
    16    13    14    1
    17    14    15    1
    18    14    16    1
    19    16    17    1
    20    17    18    1
    21    18    19    1
    22    19    20    1
    23     3     4   ar
    24     4     5   ar
    25     5     6    1
    26    28    29   ar
    27    29    24   ar
    28     5     1   ar
    29    20    18    1
    30     7    11    1
    31    10    12    1
