@<TRIPOS>MOLECULE
*****
 33 37 0 0 0
SMALL
GASTEIGER

@<TRIPOS>ATOM
      1 N         142.6467  143.8793  162.5446 N.3     1  UNL1       -0.2724
      2 C         143.5235  144.9088  163.1936 C.3     1  UNL1        0.0724
      3 C         144.1224  144.2976  164.4256 C.3     1  UNL1        0.0215
      4 C         144.5569  143.4333  165.5719 C.3     1  UNL1        0.0073
      5 C         143.6157  142.8903  164.5380 C.3     1  UNL1        0.0371
      6 C         142.7036  142.6318  163.3755 C.3     1  UNL1        0.0762
      7 C         143.4758  141.5292  165.1527 C.ar    1  UNL1        0.0060
      8 C         144.1545  140.3488  164.5235 C.ar    1  UNL1       -0.0020
      9 C         144.0147  138.9876  165.1382 C.ar    1  UNL1       -0.0002
     10 C         143.1961  138.8069  166.3821 C.ar    1  UNL1        0.0061
     11 C         142.5173  139.9875  167.0113 C.ar    1  UNL1        0.0985
     12 C         142.6572  141.3485  166.3966 C.ar    1  UNL1        0.1400
     13 F         141.9784  142.5289  167.0258 F       1  UNL1       -0.2046
     14 C         141.6987  139.8068  168.2552 C.3     1  UNL1        0.4207
     15 F         140.8802  139.6262  169.4991 F       1  UNL1       -0.1658
     16 F         142.9329  139.4097  169.0097 F       1  UNL1       -0.1658
     17 F         140.4646  140.2039  167.5007 F       1  UNL1       -0.1658
     18 C         141.8523  144.0648  161.2858 C.3     1  UNL1        0.0730
     19 C         140.8287  145.1578  161.1991 C.3     1  UNL1        0.0294
     20 C         140.0964  145.5991  162.4316 C.3     1  UNL1        0.0666
     21 S         138.7025  145.1095  162.6915 S.3     1  UNL1       -0.0756
     22 C         138.3610  141.3368  163.5369 C.ar    1  UNL1        0.2029
     23 N         137.6421  141.4054  162.2222 N.ar    1  UNL1       -0.1250
     24 N         137.6826  142.8270  161.7455 N.ar    1  UNL1       -0.1220
     25 C         138.4264  143.6370  162.7656 C.ar    1  UNL1        0.1933
     26 N         138.8457  142.7159  163.8727 N.ar    1  UNL1       -0.2860
     27 C         139.6147  143.1057  165.1002 C.3     1  UNL1        0.1341
     28 C         140.8122  139.2018  163.2483 C.3     1  UNL1        0.0556
     29 C         139.6868  139.1238  164.2370 C.ar    1  UNL1        0.1001
     30 N         139.4906  138.0507  165.2666 N.ar    1  UNL1       -0.2085
     31 C         138.2426  138.3689  166.0356 C.ar    1  UNL1        0.2849
     32 O         137.6676  139.6385  165.4813 O.2     1  UNL1       -0.4283
     33 C         138.5602  140.1051  164.3697 C.ar    1  UNL1        0.1964
@<TRIPOS>BOND
     1    28    29    1
     2    29    30   ar
     3    30    31   ar
     4    31    32   ar
     5    32    33   ar
     6    33    22    1
     7    22    23   ar
     8    23    24   ar
     9    24    25   ar
    10    25    21    1
    11    21    20    1
    12    20    19    1
    13    19    18    1
    14    18     1    1
    15     1     2    1
    16     2     3    1
    17     3     4    1
    18     4     5    1
    19     5     7    1
    20     7     8   ar
    21     8     9   ar
    22     9    10   ar
    23    10    11   ar
    24    11    14    1
    25    14    15    1
    26    14    16    1
    27    14    17    1
    28    11    12   ar
    29    12    13    1
    30     5     6    1
    31    25    26   ar
    32    26    27    1
    33    33    29   ar
    34    26    22   ar
    35     6     1    1
    36     5     3    1
    37    12     7   ar
@<TRIPOS>MOLECULE
*****
 33 37 0 0 0
SMALL
GASTEIGER

@<TRIPOS>ATOM
      1 N         142.3565  143.7752  164.0094 N.3     1  UNL1       -0.2724
      2 C         141.4366  144.9461  163.8286 C.3     1  UNL1        0.0724
      3 C         140.1010  144.5796  164.4047 C.3     1  UNL1        0.0215
      4 C         138.9055  143.9403  165.0465 C.3     1  UNL1        0.0073
      5 C         140.1954  143.1821  164.9415 C.3     1  UNL1        0.0371
      6 C         141.5894  142.6850  164.6972 C.3     1  UNL1        0.0762
      7 C         139.6981  141.9334  165.6073 C.ar    1  UNL1        0.0060
      8 C         138.7525  141.0225  164.8820 C.ar    1  UNL1       -0.0020
      9 C         138.2550  139.7737  165.5479 C.ar    1  UNL1       -0.0002
     10 C         138.7032  139.4360  166.9389 C.ar    1  UNL1        0.0061
     11 C         139.6488  140.3470  167.6642 C.ar    1  UNL1        0.0985
     12 C         140.1462  141.5957  166.9984 C.ar    1  UNL1        0.1400
     13 F         141.0918  142.5067  167.7237 F       1  UNL1       -0.2046
     14 C         140.0970  140.0093  169.0553 C.3     1  UNL1        0.4207
     15 F         140.5452  139.6716  170.4463 F       1  UNL1       -0.1658
     16 F         138.7411  140.3766  169.5813 F       1  UNL1       -0.1658
     17 F         141.4529  139.6419  168.5293 F       1  UNL1       -0.1658
     18 C         143.7916  143.7065  163.5782 C.3     1  UNL1        0.0730
     19 C         144.7914  142.9645  164.4146 C.3     1  UNL1        0.0294
     20 C         145.6298  141.8838  163.7988 C.3     1  UNL1        0.0666
     21 S         145.3169  140.4429  164.0746 S.3     1  UNL1       -0.0756
     22 C         141.7391  139.3393  163.0518 C.ar    1  UNL1        0.2029
     23 N         141.7305  139.0269  164.5189 N.ar    1  UNL1       -0.1250
     24 N         143.0697  139.4023  165.0806 N.ar    1  UNL1       -0.1220
     25 C         143.9060  139.9467  163.9607 C.ar    1  UNL1        0.1933
     26 N         143.0836  139.9077  162.7069 N.ar    1  UNL1       -0.2860
     27 C         143.5279  140.3581  161.3468 C.3     1  UNL1        0.1341
     28 C         140.0634  141.6705  161.5003 C.3     1  UNL1        0.0556
     29 C         139.8325  140.1929  161.3842 C.ar    1  UNL1        0.1001
     30 N         138.7907  139.5275  160.5345 N.ar    1  UNL1       -0.2085
     31 C         138.9171  138.0447  160.7226 C.ar    1  UNL1        0.2849
     32 O         140.0369  137.7937  161.6884 O.2     1  UNL1       -0.4283
     33 C         140.6026  139.1214  162.0973 C.ar    1  UNL1        0.1964
@<TRIPOS>BOND
     1    28    29    1
     2    29    30   ar
     3    30    31   ar
     4    31    32   ar
     5    32    33   ar
     6    33    22    1
     7    22    23   ar
     8    23    24   ar
     9    24    25   ar
    10    25    21    1
    11    21    20    1
    12    20    19    1
    13    19    18    1
    14    18     1    1
    15     1     2    1
    16     2     3    1
    17     3     4    1
    18     4     5    1
    19     5     7    1
    20     7     8   ar
    21     8     9   ar
    22     9    10   ar
    23    10    11   ar
    24    11    14    1
    25    14    15    1
    26    14    16    1
    27    14    17    1
    28    11    12   ar
    29    12    13    1
    30     5     6    1
    31    25    26   ar
    32    26    27    1
    33    33    29   ar
    34    26    22   ar
    35     6     1    1
    36     5     3    1
    37    12     7   ar
@<TRIPOS>MOLECULE
*****
 33 37 0 0 0
SMALL
GASTEIGER

@<TRIPOS>ATOM
      1 N         144.2124  141.5672  163.1496 N.3     1  UNL1       -0.2724
      2 C         145.1712  142.4077  163.9398 C.3     1  UNL1        0.0724
      3 C         144.5272  143.7402  164.1840 C.3     1  UNL1        0.0215
      4 C         143.6441  144.9499  164.2665 C.3     1  UNL1        0.0073
      5 C         143.1703  143.7233  163.5447 C.3     1  UNL1        0.0371
      6 C         142.9758  142.3804  162.9054 C.3     1  UNL1        0.0762
      7 C         141.8347  144.2800  163.1495 C.ar    1  UNL1        0.0060
      8 C         141.6705  144.9678  161.8266 C.ar    1  UNL1       -0.0020
      9 C         140.3348  145.5245  161.4314 C.ar    1  UNL1       -0.0002
     10 C         139.1634  145.3935  162.3592 C.ar    1  UNL1        0.0061
     11 C         139.3277  144.7057  163.6821 C.ar    1  UNL1        0.0985
     12 C         140.6633  144.1490  164.0773 C.ar    1  UNL1        0.1400
     13 F         140.8275  143.4612  165.4001 F       1  UNL1       -0.2046
     14 C         138.1563  144.5746  164.6098 C.3     1  UNL1        0.4207
     15 F         136.9850  144.4436  165.5375 F       1  UNL1       -0.1658
     16 F         138.8546  145.4428  165.6142 F       1  UNL1       -0.1658
     17 F         137.4580  143.7065  163.6055 F       1  UNL1       -0.1658
     18 C         144.4487  140.1607  162.6852 C.3     1  UNL1        0.0730
     19 C         144.0012  139.0061  163.5317 C.3     1  UNL1        0.0294
     20 C         142.5390  138.7782  163.7768 C.3     1  UNL1        0.0666
     21 S         142.0838  138.1338  165.0526 S.3     1  UNL1       -0.0756
     22 C         141.6899  140.4206  168.1640 C.ar    1  UNL1        0.2029
     23 N         142.9397  139.6683  168.5135 N.ar    1  UNL1       -0.1250
     24 N         143.2393  138.7202  167.3906 N.ar    1  UNL1       -0.1220
     25 C         142.1748  138.8864  166.3470 C.ar    1  UNL1        0.1933
     26 N         141.2172  139.9373  166.8250 N.ar    1  UNL1       -0.2860
     27 C         140.0005  140.4202  166.0925 C.3     1  UNL1        0.1341
     28 C         139.9671  139.8953  170.8854 C.3     1  UNL1        0.0556
     29 C         140.2370  141.2302  170.2565 C.ar    1  UNL1        0.1001
     30 N         139.7625  142.5579  170.7683 N.ar    1  UNL1       -0.2085
     31 C         140.2610  143.6199  169.8336 C.ar    1  UNL1        0.2849
     32 O         141.0437  142.9486  168.7444 O.2     1  UNL1       -0.4283
     33 C         141.0289  141.4716  169.0057 C.ar    1  UNL1        0.1964
@<TRIPOS>BOND
     1    28    29    1
     2    29    30   ar
     3    30    31   ar
     4    31    32   ar
     5    32    33   ar
     6    33    22    1
     7    22    23   ar
     8    23    24   ar
     9    24    25   ar
    10    25    21    1
    11    21    20    1
    12    20    19    1
    13    19    18    1
    14    18     1    1
    15     1     2    1
    16     2     3    1
    17     3     4    1
    18     4     5    1
    19     5     7    1
    20     7     8   ar
    21     8     9   ar
    22     9    10   ar
    23    10    11   ar
    24    11    14    1
    25    14    15    1
    26    14    16    1
    27    14    17    1
    28    11    12   ar
    29    12    13    1
    30     5     6    1
    31    25    26   ar
    32    26    27    1
    33    33    29   ar
    34    26    22   ar
    35     6     1    1
    36     5     3    1
    37    12     7   ar
@<TRIPOS>MOLECULE
*****
 33 37 0 0 0
SMALL
GASTEIGER

@<TRIPOS>ATOM
      1 N         138.6774  138.9477  162.4993 N.3     1  UNL1       -0.2724
      2 C         138.1963  139.1655  161.0953 C.3     1  UNL1        0.0724
      3 C         138.0938  140.6442  160.8646 C.3     1  UNL1        0.0215
      4 C         138.0918  142.1427  160.9303 C.3     1  UNL1        0.0073
      5 C         138.5115  141.3401  162.1260 C.3     1  UNL1        0.0371
      6 C         138.8722  140.2916  163.1363 C.3     1  UNL1        0.0762
      7 C         138.7941  142.5163  163.0130 C.ar    1  UNL1        0.0060
      8 C         137.6979  143.1035  163.8518 C.ar    1  UNL1       -0.0020
      9 C         137.9805  144.2797  164.7389 C.ar    1  UNL1       -0.0002
     10 C         139.3592  144.8687  164.7870 C.ar    1  UNL1        0.0061
     11 C         140.4554  144.2814  163.9481 C.ar    1  UNL1        0.0985
     12 C         140.1728  143.1053  163.0612 C.ar    1  UNL1        0.1400
     13 F         141.2690  142.5181  162.2223 F       1  UNL1       -0.2046
     14 C         141.8341  144.8704  163.9963 C.3     1  UNL1        0.4207
     15 F         143.2127  145.4593  164.0445 F       1  UNL1       -0.1658
     16 F         142.2879  143.7367  164.8674 F       1  UNL1       -0.1658
     17 F         141.3802  146.0040  163.1252 F       1  UNL1       -0.1658
     18 C         138.9209  137.6191  163.1517 C.3     1  UNL1        0.0730
     19 C         140.1666  137.3960  163.9568 C.3     1  UNL1        0.0294
     20 C         141.5089  137.7047  163.3627 C.3     1  UNL1        0.0666
     21 S         142.3587  138.7905  163.9534 S.3     1  UNL1       -0.0756
     22 C         142.3481  139.4528  167.7779 C.ar    1  UNL1        0.2029
     23 N         143.4521  138.4440  167.6614 N.ar    1  UNL1       -0.1250
     24 N         143.5905  138.0732  166.2147 N.ar    1  UNL1       -0.1220
     25 C         142.5720  138.8527  165.4369 C.ar    1  UNL1        0.1933
     26 N         141.8042  139.7054  166.4031 N.ar    1  UNL1       -0.2860
     27 C         140.6883  140.6456  166.0553 C.3     1  UNL1        0.1341
     28 C         143.2662  142.3724  168.9104 C.3     1  UNL1        0.0556
     29 C         142.2937  141.4379  169.5670 C.ar    1  UNL1        0.1001
     30 N         141.5725  141.6815  170.8595 N.ar    1  UNL1       -0.2085
     31 C         140.7048  140.4900  171.1378 C.ar    1  UNL1        0.2849
     32 O         140.8897  139.5102  170.0173 O.2     1  UNL1       -0.4283
     33 C         141.8717  140.0960  169.0465 C.ar    1  UNL1        0.1964
@<TRIPOS>BOND
     1    28    29    1
     2    29    30   ar
     3    30    31   ar
     4    31    32   ar
     5    32    33   ar
     6    33    22    1
     7    22    23   ar
     8    23    24   ar
     9    24    25   ar
    10    25    21    1
    11    21    20    1
    12    20    19    1
    13    19    18    1
    14    18     1    1
    15     1     2    1
    16     2     3    1
    17     3     4    1
    18     4     5    1
    19     5     7    1
    20     7     8   ar
    21     8     9   ar
    22     9    10   ar
    23    10    11   ar
    24    11    14    1
    25    14    15    1
    26    14    16    1
    27    14    17    1
    28    11    12   ar
    29    12    13    1
    30     5     6    1
    31    25    26   ar
    32    26    27    1
    33    33    29   ar
    34    26    22   ar
    35     6     1    1
    36     5     3    1
    37    12     7   ar
@<TRIPOS>MOLECULE
*****
 33 37 0 0 0
SMALL
GASTEIGER

@<TRIPOS>ATOM
      1 N         142.0635  139.8013  164.0711 N.3     1  UNL1       -0.2724
      2 C         141.1474  140.6874  163.2801 C.3     1  UNL1        0.0724
      3 C         140.3150  141.4754  164.2476 C.3     1  UNL1        0.0215
      4 C         139.6449  142.1056  165.4324 C.3     1  UNL1        0.0073
      5 C         140.7166  141.0763  165.6367 C.3     1  UNL1        0.0371
      6 C         141.7972  140.0417  165.5275 C.3     1  UNL1        0.0762
      7 C         140.6745  141.1015  167.1359 C.ar    1  UNL1        0.0060
      8 C         139.6562  140.2817  167.8714 C.ar    1  UNL1       -0.0020
      9 C         139.6140  140.3068  169.3706 C.ar    1  UNL1       -0.0002
     10 C         140.5901  141.1518  170.1343 C.ar    1  UNL1        0.0061
     11 C         141.6085  141.9716  169.3987 C.ar    1  UNL1        0.0985
     12 C         141.6506  141.9464  167.8996 C.ar    1  UNL1        0.1400
     13 F         142.6690  142.7662  167.1641 F       1  UNL1       -0.2046
     14 C         142.5846  142.8166  170.1624 C.3     1  UNL1        0.4207
     15 F         143.5607  143.6615  170.9261 F       1  UNL1       -0.1658
     16 F         141.5936  143.9424  170.1835 F       1  UNL1       -0.1658
     17 F         143.5756  141.6907  170.1413 F       1  UNL1       -0.1658
     18 C         143.0692  138.8431  163.5050 C.3     1  UNL1        0.0730
     19 C         144.5056  139.2546  163.3730 C.3     1  UNL1        0.0294
     20 C         145.0531  140.3537  164.2346 C.3     1  UNL1        0.0666
     21 S         145.4854  141.6488  163.6135 S.3     1  UNL1       -0.0756
     22 C         142.7841  144.1107  162.3070 C.ar    1  UNL1        0.2029
     23 N         143.0811  144.6955  163.6560 N.ar    1  UNL1       -0.1250
     24 N         144.1291  143.8445  164.3096 N.ar    1  UNL1       -0.1220
     25 C         144.4799  142.7337  163.3646 C.ar    1  UNL1        0.1933
     26 N         143.6486  142.8983  162.1269 N.ar    1  UNL1       -0.2860
     27 C         143.6768  142.0068  160.9209 C.3     1  UNL1        0.1341
     28 C         139.6957  144.9564  162.9364 C.3     1  UNL1        0.0556
     29 C         140.3765  145.0334  161.6020 C.ar    1  UNL1        0.1001
     30 N         139.7571  145.5126  160.3227 N.ar    1  UNL1       -0.2085
     31 C         140.7939  145.4200  159.2427 C.ar    1  UNL1        0.2849
     32 O         142.0540  144.8836  159.8545 O.2     1  UNL1       -0.4283
     33 C         141.7959  144.6447  161.3127 C.ar    1  UNL1        0.1964
@<TRIPOS>BOND
     1    28    29    1
     2    29    30   ar
     3    30    31   ar
     4    31    32   ar
     5    32    33   ar
     6    33    22    1
     7    22    23   ar
     8    23    24   ar
     9    24    25   ar
    10    25    21    1
    11    21    20    1
    12    20    19    1
    13    19    18    1
    14    18     1    1
    15     1     2    1
    16     2     3    1
    17     3     4    1
    18     4     5    1
    19     5     7    1
    20     7     8   ar
    21     8     9   ar
    22     9    10   ar
    23    10    11   ar
    24    11    14    1
    25    14    15    1
    26    14    16    1
    27    14    17    1
    28    11    12   ar
    29    12    13    1
    30     5     6    1
    31    25    26   ar
    32    26    27    1
    33    33    29   ar
    34    26    22   ar
    35     6     1    1
    36     5     3    1
    37    12     7   ar
@<TRIPOS>MOLECULE
*****
 33 37 0 0 0
SMALL
GASTEIGER

@<TRIPOS>ATOM
      1 N         139.7381  139.3763  166.2728 N.3     1  UNL1       -0.2724
      2 C         139.7651  139.8919  167.6811 C.3     1  UNL1        0.0724
      3 C         140.9943  140.7364  167.8421 C.3     1  UNL1        0.0215
      4 C         142.2738  141.5067  167.7026 C.3     1  UNL1        0.0073
      5 C         141.7270  140.7427  166.5333 C.3     1  UNL1        0.0371
      6 C         140.9506  139.9021  165.5634 C.3     1  UNL1        0.0762
      7 C         142.8253  141.1088  165.5794 C.ar    1  UNL1        0.0060
      8 C         143.8472  140.0845  165.1835 C.ar    1  UNL1       -0.0020
      9 C         144.9455  140.4506  164.2296 C.ar    1  UNL1       -0.0002
     10 C         145.0218  141.8409  163.6716 C.ar    1  UNL1        0.0061
     11 C         143.9998  142.8651  164.0676 C.ar    1  UNL1        0.0985
     12 C         142.9016  142.4990  165.0214 C.ar    1  UNL1        0.1400
     13 F         141.8797  143.5232  165.4173 F       1  UNL1       -0.2046
     14 C         144.0762  144.2554  163.5096 C.3     1  UNL1        0.4207
     15 F         144.1525  145.6456  162.9516 F       1  UNL1       -0.1658
     16 F         144.4285  144.7818  164.8693 F       1  UNL1       -0.1658
     17 F         143.7238  143.7290  162.1499 F       1  UNL1       -0.1658
     18 C         138.6837  138.4904  165.6782 C.3     1  UNL1        0.0730
     19 C         139.0598  137.4584  164.6567 C.3     1  UNL1        0.0294
     20 C         138.6752  137.6506  163.2196 C.3     1  UNL1        0.0666
     21 S         139.4244  138.6318  162.3675 S.3     1  UNL1       -0.0756
     22 C         138.8838  142.4523  161.9475 C.ar    1  UNL1        0.2029
     23 N         137.4743  141.9806  162.1492 N.ar    1  UNL1       -0.1250
     24 N         137.5052  140.4921  162.3311 N.ar    1  UNL1       -0.1220
     25 C         138.9339  140.0438  162.2418 C.ar    1  UNL1        0.1933
     26 N         139.7859  141.2553  162.0047 N.ar    1  UNL1       -0.2860
     27 C         141.2780  141.2676  161.8517 C.3     1  UNL1        0.1341
     28 C         139.0248  144.7892  164.2210 C.3     1  UNL1        0.0556
     29 C         139.3803  144.9460  162.7722 C.ar    1  UNL1        0.1001
     30 N         139.8629  146.2045  162.1141 N.ar    1  UNL1       -0.2085
     31 C         140.0964  145.9082  160.6623 C.ar    1  UNL1        0.2849
     32 O         139.7580  144.4667  160.4232 O.2     1  UNL1       -0.4283
     33 C         139.3154  143.8720  161.7272 C.ar    1  UNL1        0.1964
@<TRIPOS>BOND
     1    28    29    1
     2    29    30   ar
     3    30    31   ar
     4    31    32   ar
     5    32    33   ar
     6    33    22    1
     7    22    23   ar
     8    23    24   ar
     9    24    25   ar
    10    25    21    1
    11    21    20    1
    12    20    19    1
    13    19    18    1
    14    18     1    1
    15     1     2    1
    16     2     3    1
    17     3     4    1
    18     4     5    1
    19     5     7    1
    20     7     8   ar
    21     8     9   ar
    22     9    10   ar
    23    10    11   ar
    24    11    14    1
    25    14    15    1
    26    14    16    1
    27    14    17    1
    28    11    12   ar
    29    12    13    1
    30     5     6    1
    31    25    26   ar
    32    26    27    1
    33    33    29   ar
    34    26    22   ar
    35     6     1    1
    36     5     3    1
    37    12     7   ar
@<TRIPOS>MOLECULE
*****
 33 37 0 0 0
SMALL
GASTEIGER

@<TRIPOS>ATOM
      1 N         139.8224  141.9012  160.3153 N.3     1  UNL1       -0.2724
      2 C         138.5780  141.5413  159.5590 C.3     1  UNL1        0.0724
      3 C         137.9729  140.3330  160.2100 C.3     1  UNL1        0.0215
      4 C         137.6122  139.1482  161.0561 C.3     1  UNL1        0.0073
      5 C         138.8433  139.9461  161.3688 C.3     1  UNL1        0.0371
      6 C         139.9863  140.9153  161.4338 C.3     1  UNL1        0.0762
      7 C         139.2646  139.1270  162.5526 C.ar    1  UNL1        0.0060
      8 C         140.3894  138.1433  162.4219 C.ar    1  UNL1       -0.0020
      9 C         140.8107  137.3241  163.6058 C.ar    1  UNL1       -0.0002
     10 C         140.1073  137.4888  164.9204 C.ar    1  UNL1        0.0061
     11 C         138.9824  138.4725  165.0510 C.ar    1  UNL1        0.0985
     12 C         138.5611  139.2916  163.8672 C.ar    1  UNL1        0.1400
     13 F         137.4363  140.2754  163.9979 F       1  UNL1       -0.2046
     14 C         138.2789  138.6372  166.3656 C.3     1  UNL1        0.4207
     15 F         137.5754  138.8018  167.6800 F       1  UNL1       -0.1658
     16 F         137.8580  137.1981  166.3206 F       1  UNL1       -0.1658
     17 F         138.6998  140.0762  166.4106 F       1  UNL1       -0.1658
     18 C         140.7414  143.0459  160.0073 C.3     1  UNL1        0.0730
     19 C         140.1814  144.4212  159.7955 C.3     1  UNL1        0.0294
     20 C         140.5920  145.5456  160.6994 C.3     1  UNL1        0.0666
     21 S         139.7214  145.9325  161.8581 S.3     1  UNL1       -0.0756
     22 C         139.8543  143.5145  164.8913 C.ar    1  UNL1        0.2029
     23 N         138.4060  143.4238  164.5116 N.ar    1  UNL1       -0.1250
     24 N         138.1800  144.3185  163.3292 N.ar    1  UNL1       -0.1220
     25 C         139.4886  144.9622  162.9781 C.ar    1  UNL1        0.1933
     26 N         140.5233  144.4653  163.9436 N.ar    1  UNL1       -0.2860
     27 C         141.9728  144.8514  163.9586 C.3     1  UNL1        0.1341
     28 C         141.9126  140.9987  164.6011 C.3     1  UNL1        0.0556
     29 C         141.4632  141.6265  165.8872 C.ar    1  UNL1        0.1001
     30 N         141.8811  141.2080  167.2657 N.ar    1  UNL1       -0.2085
     31 C         141.1933  142.1057  168.2511 C.ar    1  UNL1        0.2849
     32 O         140.3504  143.0790  167.4816 O.2     1  UNL1       -0.4283
     33 C         140.5172  142.7828  166.0206 C.ar    1  UNL1        0.1964
@<TRIPOS>BOND
     1    28    29    1
     2    29    30   ar
     3    30    31   ar
     4    31    32   ar
     5    32    33   ar
     6    33    22    1
     7    22    23   ar
     8    23    24   ar
     9    24    25   ar
    10    25    21    1
    11    21    20    1
    12    20    19    1
    13    19    18    1
    14    18     1    1
    15     1     2    1
    16     2     3    1
    17     3     4    1
    18     4     5    1
    19     5     7    1
    20     7     8   ar
    21     8     9   ar
    22     9    10   ar
    23    10    11   ar
    24    11    14    1
    25    14    15    1
    26    14    16    1
    27    14    17    1
    28    11    12   ar
    29    12    13    1
    30     5     6    1
    31    25    26   ar
    32    26    27    1
    33    33    29   ar
    34    26    22   ar
    35     6     1    1
    36     5     3    1
    37    12     7   ar
@<TRIPOS>MOLECULE
*****
 33 37 0 0 0
SMALL
GASTEIGER

@<TRIPOS>ATOM
      1 N         139.0744  139.7603  166.6306 N.3     1  UNL1       -0.2724
      2 C         139.7030  139.9050  167.9849 C.3     1  UNL1        0.0724
      3 C         140.4196  141.2222  168.0250 C.3     1  UNL1        0.0215
      4 C         141.0315  142.5679  167.7709 C.3     1  UNL1        0.0073
      5 C         140.2339  141.8916  166.6956 C.3     1  UNL1        0.0371
      6 C         139.4025  140.9881  165.8338 C.3     1  UNL1        0.0762
      7 C         140.3952  142.9779  165.6739 C.ar    1  UNL1        0.0060
      8 C         139.2301  143.8541  165.3205 C.ar    1  UNL1       -0.0020
      9 C         139.3915  144.9405  164.2988 C.ar    1  UNL1       -0.0002
     10 C         140.7179  145.1507  163.6306 C.ar    1  UNL1        0.0061
     11 C         141.8830  144.2745  163.9841 C.ar    1  UNL1        0.0985
     12 C         141.7216  143.1881  165.0058 C.ar    1  UNL1        0.1400
     13 F         142.8867  142.3120  165.3592 F       1  UNL1       -0.2046
     14 C         143.2094  144.4847  163.3159 C.3     1  UNL1        0.4207
     15 F         144.5357  144.6949  162.6478 F       1  UNL1       -0.1658
     16 F         142.8016  143.5529  162.2134 F       1  UNL1       -0.1658
     17 F         143.6172  145.4164  164.4185 F       1  UNL1       -0.1658
     18 C         138.2607  138.5929  166.1565 C.3     1  UNL1        0.0730
     19 C         138.8839  137.5540  165.2720 C.3     1  UNL1        0.0294
     20 C         140.3149  137.6936  164.8446 C.3     1  UNL1        0.0666
     21 S         140.6978  137.4493  163.4149 S.3     1  UNL1       -0.0756
     22 C         139.7513  140.2259  160.8734 C.ar    1  UNL1        0.2029
     23 N         138.8330  139.1185  160.4482 N.ar    1  UNL1       -0.1250
     24 N         139.0758  137.9437  161.3485 N.ar    1  UNL1       -0.1220
     25 C         140.1441  138.3248  162.3301 C.ar    1  UNL1        0.1933
     26 N         140.5615  139.7353  162.0364 N.ar    1  UNL1       -0.2860
     27 C         141.6059  140.5179  162.7760 C.3     1  UNL1        0.1341
     28 C         138.0026  142.8495  161.7149 C.3     1  UNL1        0.0556
     29 C         139.0393  142.7910  160.6323 C.ar    1  UNL1        0.1001
     30 N         139.4542  143.9282  159.7466 N.ar    1  UNL1       -0.2085
     31 C         140.5144  143.4251  158.8124 C.ar    1  UNL1        0.2849
     32 O         140.7547  141.9770  159.1207 O.2     1  UNL1       -0.4283
     33 C         139.8430  141.5851  160.2456 C.ar    1  UNL1        0.1964
@<TRIPOS>BOND
     1    28    29    1
     2    29    30   ar
     3    30    31   ar
     4    31    32   ar
     5    32    33   ar
     6    33    22    1
     7    22    23   ar
     8    23    24   ar
     9    24    25   ar
    10    25    21    1
    11    21    20    1
    12    20    19    1
    13    19    18    1
    14    18     1    1
    15     1     2    1
    16     2     3    1
    17     3     4    1
    18     4     5    1
    19     5     7    1
    20     7     8   ar
    21     8     9   ar
    22     9    10   ar
    23    10    11   ar
    24    11    14    1
    25    14    15    1
    26    14    16    1
    27    14    17    1
    28    11    12   ar
    29    12    13    1
    30     5     6    1
    31    25    26   ar
    32    26    27    1
    33    33    29   ar
    34    26    22   ar
    35     6     1    1
    36     5     3    1
    37    12     7   ar
@<TRIPOS>MOLECULE
*****
 33 37 0 0 0
SMALL
GASTEIGER

@<TRIPOS>ATOM
      1 N         142.5614  143.8550  164.3433 N.3     1  UNL1       -0.2724
      2 C         141.4844  144.7787  163.8566 C.3     1  UNL1        0.0724
      3 C         140.2003  144.3868  164.5256 C.3     1  UNL1        0.0215
      4 C         139.0931  143.7751  165.3317 C.3     1  UNL1        0.0073
      5 C         140.4837  143.2209  165.4259 C.3     1  UNL1        0.0371
      6 C         141.9429  142.8923  165.3132 C.3     1  UNL1        0.0762
      7 C         140.1560  142.1424  166.4154 C.ar    1  UNL1        0.0060
      8 C         140.5116  142.3185  167.8620 C.ar    1  UNL1       -0.0020
      9 C         140.1839  141.2399  168.8516 C.ar    1  UNL1       -0.0002
     10 C         139.5006  139.9851  168.3946 C.ar    1  UNL1        0.0061
     11 C         139.1450  139.8091  166.9480 C.ar    1  UNL1        0.0985
     12 C         139.4727  140.8876  165.9584 C.ar    1  UNL1        0.1400
     13 F         139.1171  140.7115  164.5119 F       1  UNL1       -0.2046
     14 C         138.4617  138.5543  166.4910 C.3     1  UNL1        0.4207
     15 F         137.7785  137.2997  166.0340 F       1  UNL1       -0.1658
     16 F         137.2340  138.9427  167.2603 F       1  UNL1       -0.1658
     17 F         139.6894  138.1660  165.7216 F       1  UNL1       -0.1658
     18 C         144.0036  143.8882  163.9323 C.3     1  UNL1        0.0730
     19 C         144.9658  142.8818  164.4901 C.3     1  UNL1        0.0294
     20 C         145.6423  141.9040  163.5756 C.3     1  UNL1        0.0666
     21 S         144.9235  140.6605  163.1432 S.3     1  UNL1       -0.0756
     22 C         141.3917  140.5074  161.5406 C.ar    1  UNL1        0.2029
     23 N         142.1303  141.3404  160.5353 N.ar    1  UNL1       -0.1250
     24 N         143.5432  141.4991  161.0132 N.ar    1  UNL1       -0.1220
     25 C         143.6778  140.7642  162.3139 C.ar    1  UNL1        0.1933
     26 N         142.3481  140.1513  162.6398 N.ar    1  UNL1       -0.2860
     27 C         142.0306  139.3270  163.8522 C.3     1  UNL1        0.1341
     28 C         138.8545  142.5159  161.1182 C.3     1  UNL1        0.0556
     29 C         138.7837  141.0249  161.2665 C.ar    1  UNL1        0.1001
     30 N         137.5341  140.1954  161.2466 N.ar    1  UNL1       -0.2085
     31 C         137.9280  138.7595  161.4285 C.ar    1  UNL1        0.2849
     32 O         139.4209  138.7016  161.5607 O.2     1  UNL1       -0.4283
     33 C         139.9498  140.1017  161.4606 C.ar    1  UNL1        0.1964
@<TRIPOS>BOND
     1    28    29    1
     2    29    30   ar
     3    30    31   ar
     4    31    32   ar
     5    32    33   ar
     6    33    22    1
     7    22    23   ar
     8    23    24   ar
     9    24    25   ar
    10    25    21    1
    11    21    20    1
    12    20    19    1
    13    19    18    1
    14    18     1    1
    15     1     2    1
    16     2     3    1
    17     3     4    1
    18     4     5    1
    19     5     7    1
    20     7     8   ar
    21     8     9   ar
    22     9    10   ar
    23    10    11   ar
    24    11    14    1
    25    14    15    1
    26    14    16    1
    27    14    17    1
    28    11    12   ar
    29    12    13    1
    30     5     6    1
    31    25    26   ar
    32    26    27    1
    33    33    29   ar
    34    26    22   ar
    35     6     1    1
    36     5     3    1
    37    12     7   ar
