@<TRIPOS>MOLECULE
*****
 35 38 0 0 0
SMALL
GASTEIGER

@<TRIPOS>ATOM
      1 C         139.2305  137.6202  163.5230 C.3     1  UNL1        0.0307
      2 C         139.2723  138.6368  162.4208 C.ar    1  UNL1       -0.0245
      3 C         138.8355  138.2600  161.0362 C.ar    1  UNL1       -0.0032
      4 C         138.8773  139.2765  159.9340 C.ar    1  UNL1        0.0156
      5 C         139.3559  140.6698  160.2163 C.ar    1  UNL1        0.0641
      6 C         139.7927  141.0466  161.6010 C.ar    1  UNL1        0.0783
      7 C         139.7509  140.0301  162.7032 C.ar    1  UNL1       -0.0097
      8 C         140.1478  140.2344  164.1352 C.3     1  UNL1        0.0321
      9 N         140.2999  142.3692  162.0943 N.pl3   1  UNL1       -0.1852
     10 C         140.4956  143.6418  161.3247 C.3     1  UNL1        0.1450
     11 C         140.2324  143.9061  159.8718 C.ar    1  UNL1        0.0311
     12 C         140.5647  145.3216  159.5033 C.ar    1  UNL1        0.0017
     13 C         140.3730  145.7940  158.0926 C.ar    1  UNL1        0.0229
     14 C         139.8491  144.8509  157.0504 C.ar    1  UNL1        0.1540
     15 N         139.5169  143.4354  157.4189 N.ar    1  UNL1       -0.2269
     16 C         139.7085  142.9630  158.8296 C.ar    1  UNL1        0.1297
     17 N         139.3184  141.5227  158.9830 N.pl3   1  UNL1       -0.2972
     18 H         138.9951  141.0785  158.1661 H       1  UNL1        0.1536
     19 C         139.6575  145.3235  155.6397 C.3     1  UNL1        0.4349
     20 F         139.4658  145.7959  154.2290 F       1  UNL1       -0.1644
     21 F         140.9867  146.0167  155.6913 F       1  UNL1       -0.1644
     22 F         138.3283  144.6302  155.5881 F       1  UNL1       -0.1644
     23 S         140.6589  142.4269  163.5495 S.O2    1  UNL1        0.0769
     24 O         139.2585  142.8522  163.8781 O.2     1  UNL1       -0.1497
     25 O         142.0926  142.0119  163.4008 O.2     1  UNL1       -0.1497
     26 C         141.0179  142.4846  165.0047 C.ar    1  UNL1        0.1254
     27 C         139.9746  142.8440  166.0209 C.ar    1  UNL1        0.0199
     28 C         140.3337  142.9017  167.4762 C.ar    1  UNL1       -0.0029
     29 C         141.7359  142.6000  167.9153 C.ar    1  UNL1       -0.0227
     30 C         142.7791  142.2407  166.8991 C.ar    1  UNL1       -0.0029
     31 C         142.4201  142.1830  165.4439 C.ar    1  UNL1        0.0199
     32 C         142.0949  142.6577  169.3706 C.3     1  UNL1        0.0189
     33 C         140.7765  143.3074  169.6700 C.3     1  UNL1        0.0044
     34 C         143.4133  142.0081  169.0711 C.3     1  UNL1        0.0044
     35 C         142.4539  142.7154  170.8258 C.3     1  UNL1        0.0044
@<TRIPOS>BOND
     1     1     2    1
     2     2     3   ar
     3     3     4   ar
     4     4     5   ar
     5     5     6   ar
     6     6     7   ar
     7     7     8    1
     8     6     9    1
     9     9    23    1
    10    23    24    2
    11    23    25    2
    12    23    26    1
    13    26    27   ar
    14    27    28   ar
    15    28    29   ar
    16    29    32    1
    17    32    33    1
    18    32    34    1
    19    32    35    1
    20    29    30   ar
    21    30    31   ar
    22     9    10    1
    23    10    11    1
    24    11    12   ar
    25    12    13   ar
    26    13    14   ar
    27    14    19    1
    28    19    20    1
    29    19    21    1
    30    19    22    1
    31    14    15   ar
    32    15    16   ar
    33    16    17    1
    34     7     2   ar
    35    31    26   ar
    36    16    11   ar
    37    17     5    1
    38    17    18    1
@<TRIPOS>MOLECULE
*****
 35 38 0 0 0
SMALL
GASTEIGER

@<TRIPOS>ATOM
      1 C         141.8160  145.8920  157.4527 C.3     1  UNL1        0.0307
      2 C         141.4551  144.8066  158.4230 C.ar    1  UNL1       -0.0245
      3 C         140.2606  144.9657  159.3162 C.ar    1  UNL1       -0.0032
      4 C         139.8998  143.8803  160.2866 C.ar    1  UNL1        0.0156
      5 C         140.7335  142.6358  160.3638 C.ar    1  UNL1        0.0641
      6 C         141.9280  142.4766  159.4706 C.ar    1  UNL1        0.0783
      7 C         142.2889  143.5620  158.5003 C.ar    1  UNL1       -0.0097
      8 C         143.4412  143.5680  157.5400 C.3     1  UNL1        0.0321
      9 N         142.8863  141.3256  159.3866 N.pl3   1  UNL1       -0.1852
     10 C         142.8866  140.0495  160.1750 C.3     1  UNL1        0.1450
     11 C         141.9288  139.6092  161.2422 C.ar    1  UNL1        0.0311
     12 C         142.2903  138.2559  161.7786 C.ar    1  UNL1        0.0017
     13 C         141.4571  137.6296  162.8572 C.ar    1  UNL1        0.0229
     14 C         140.2625  138.3567  163.3995 C.ar    1  UNL1        0.1540
     15 N         139.9009  139.7100  162.8632 N.ar    1  UNL1       -0.2269
     16 C         140.7341  140.3363  161.7845 C.ar    1  UNL1        0.1297
     17 N         140.2022  141.6832  161.3935 N.pl3   1  UNL1       -0.2972
     18 H         139.3980  141.9815  161.8767 H       1  UNL1        0.1536
     19 C         139.4293  137.7303  164.4783 C.3     1  UNL1        0.4349
     20 F         138.5961  137.1040  165.5569 F       1  UNL1       -0.1644
     21 F         140.5817  136.8476  164.8560 F       1  UNL1       -0.1644
     22 F         138.2768  138.6130  164.1006 F       1  UNL1       -0.1644
     23 S         143.9901  141.4697  158.3813 S.O2    1  UNL1        0.0769
     24 O         144.8023  142.2359  159.3829 O.2     1  UNL1       -0.1497
     25 O         143.3185  140.7269  157.2645 O.2     1  UNL1       -0.1497
     26 C         145.0939  141.6139  157.3759 C.ar    1  UNL1        0.1254
     27 C         145.0296  140.8635  156.0787 C.ar    1  UNL1        0.0199
     28 C         146.1335  141.0077  155.0733 C.ar    1  UNL1       -0.0029
     29 C         147.3016  141.9023  155.3652 C.ar    1  UNL1       -0.0227
     30 C         147.3658  142.6527  156.6624 C.ar    1  UNL1       -0.0029
     31 C         146.2620  142.5085  157.6677 C.ar    1  UNL1        0.0199
     32 C         148.4055  142.0465  154.3598 C.3     1  UNL1        0.0189
     33 C         149.4140  141.7158  155.4198 C.3     1  UNL1        0.0044
     34 C         147.3969  142.3771  153.2999 C.3     1  UNL1        0.0044
     35 C         149.5093  142.1907  153.3545 C.3     1  UNL1        0.0044
@<TRIPOS>BOND
     1     1     2    1
     2     2     3   ar
     3     3     4   ar
     4     4     5   ar
     5     5     6   ar
     6     6     7   ar
     7     7     8    1
     8     6     9    1
     9     9    23    1
    10    23    24    2
    11    23    25    2
    12    23    26    1
    13    26    27   ar
    14    27    28   ar
    15    28    29   ar
    16    29    32    1
    17    32    33    1
    18    32    34    1
    19    32    35    1
    20    29    30   ar
    21    30    31   ar
    22     9    10    1
    23    10    11    1
    24    11    12   ar
    25    12    13   ar
    26    13    14   ar
    27    14    19    1
    28    19    20    1
    29    19    21    1
    30    19    22    1
    31    14    15   ar
    32    15    16   ar
    33    16    17    1
    34     7     2   ar
    35    31    26   ar
    36    16    11   ar
    37    17     5    1
    38    17    18    1
@<TRIPOS>MOLECULE
*****
 35 38 0 0 0
SMALL
GASTEIGER

@<TRIPOS>ATOM
      1 C         140.3431  145.8306  160.0331 C.3     1  UNL1        0.0307
      2 C         140.4295  145.0394  161.3045 C.ar    1  UNL1       -0.0245
      3 C         139.5931  145.4272  162.4876 C.ar    1  UNL1       -0.0032
      4 C         139.6795  144.6359  163.7590 C.ar    1  UNL1        0.0156
      5 C         140.6025  143.4568  163.8473 C.ar    1  UNL1        0.0641
      6 C         141.4390  143.0689  162.6641 C.ar    1  UNL1        0.0783
      7 C         141.3526  143.8602  161.3927 C.ar    1  UNL1       -0.0097
      8 C         142.1118  143.6140  160.1228 C.3     1  UNL1        0.0321
      9 N         142.4163  141.9377  162.5401 N.pl3   1  UNL1       -0.1852
     10 C         142.7983  140.9150  163.5687 C.3     1  UNL1        0.1450
     11 C         142.2975  140.7707  164.9753 C.ar    1  UNL1        0.0311
     12 C         142.9412  139.6074  165.6696 C.ar    1  UNL1        0.0017
     13 C         142.5783  139.2870  167.0894 C.ar    1  UNL1        0.0229
     14 C         141.5718  140.1300  167.8147 C.ar    1  UNL1        0.1540
     15 N         140.9281  141.2934  167.1204 N.ar    1  UNL1       -0.2269
     16 C         141.2909  141.6138  165.7007 C.ar    1  UNL1        0.1297
     17 N         140.5366  142.8092  165.1986 N.pl3   1  UNL1       -0.2972
     18 H         139.9162  143.2235  165.8410 H       1  UNL1        0.1536
     19 C         141.2089  139.8096  169.2345 C.3     1  UNL1        0.4349
     20 F         140.8461  139.4891  170.6543 F       1  UNL1       -0.1644
     21 F         139.9824  140.6646  169.1141 F       1  UNL1       -0.1644
     22 F         142.4354  138.9546  169.3550 F       1  UNL1       -0.1644
     23 S         143.1021  141.8127  161.2120 S.O2    1  UNL1        0.0769
     24 O         142.0155  140.8940  160.7374 O.2     1  UNL1       -0.1497
     25 O         144.2642  142.7094  161.5212 O.2     1  UNL1       -0.1497
     26 C         143.7879  141.6878  159.8839 C.ar    1  UNL1        0.1254
     27 C         144.8898  142.6370  159.5165 C.ar    1  UNL1        0.0199
     28 C         145.5756  142.5120  158.1883 C.ar    1  UNL1       -0.0029
     29 C         145.1596  141.4378  157.2276 C.ar    1  UNL1       -0.0227
     30 C         144.0578  140.4886  157.5950 C.ar    1  UNL1       -0.0029
     31 C         143.3720  140.6135  158.9231 C.ar    1  UNL1        0.0199
     32 C         145.8455  141.3128  155.8993 C.3     1  UNL1        0.0189
     33 C         144.9100  140.2031  155.5208 C.3     1  UNL1        0.0044
     34 C         146.7809  142.4225  156.2779 C.3     1  UNL1        0.0044
     35 C         146.5313  141.1878  154.5712 C.3     1  UNL1        0.0044
@<TRIPOS>BOND
     1     1     2    1
     2     2     3   ar
     3     3     4   ar
     4     4     5   ar
     5     5     6   ar
     6     6     7   ar
     7     7     8    1
     8     6     9    1
     9     9    23    1
    10    23    24    2
    11    23    25    2
    12    23    26    1
    13    26    27   ar
    14    27    28   ar
    15    28    29   ar
    16    29    32    1
    17    32    33    1
    18    32    34    1
    19    32    35    1
    20    29    30   ar
    21    30    31   ar
    22     9    10    1
    23    10    11    1
    24    11    12   ar
    25    12    13   ar
    26    13    14   ar
    27    14    19    1
    28    19    20    1
    29    19    21    1
    30    19    22    1
    31    14    15   ar
    32    15    16   ar
    33    16    17    1
    34     7     2   ar
    35    31    26   ar
    36    16    11   ar
    37    17     5    1
    38    17    18    1
@<TRIPOS>MOLECULE
*****
 35 38 0 0 0
SMALL
GASTEIGER

@<TRIPOS>ATOM
      1 C         140.4904  144.9457  159.0807 C.3     1  UNL1        0.0307
      2 C         140.4438  144.6365  160.5477 C.ar    1  UNL1       -0.0245
      3 C         140.2988  145.7481  161.5443 C.ar    1  UNL1       -0.0032
      4 C         140.2523  145.4389  163.0113 C.ar    1  UNL1        0.0156
      5 C         140.3508  144.0180  163.4818 C.ar    1  UNL1        0.0641
      6 C         140.4958  142.9063  162.4853 C.ar    1  UNL1        0.0783
      7 C         140.5423  143.2155  161.0182 C.ar    1  UNL1       -0.0097
      8 C         140.6826  142.2339  159.8927 C.3     1  UNL1        0.0321
      9 N         140.6097  141.4322  162.7384 N.pl3   1  UNL1       -0.1852
     10 C         140.6066  140.7058  164.0508 C.3     1  UNL1        0.1450
     11 C         140.4890  141.2739  165.4341 C.ar    1  UNL1        0.0311
     12 C         140.5297  140.1947  166.4751 C.ar    1  UNL1        0.0017
     13 C         140.4268  140.5506  167.9286 C.ar    1  UNL1        0.0229
     14 C         140.2832  141.9855  168.3411 C.ar    1  UNL1        0.1540
     15 N         140.2424  143.0647  167.3001 N.ar    1  UNL1       -0.2269
     16 C         140.3453  142.7089  165.8466 C.ar    1  UNL1        0.1297
     17 N         140.2838  143.9301  164.9777 N.pl3   1  UNL1       -0.2972
     18 H         140.1867  144.7873  165.4521 H       1  UNL1        0.1536
     19 C         140.1803  142.3413  169.7947 C.3     1  UNL1        0.4349
     20 F         140.0774  142.6971  171.2482 F       1  UNL1       -0.1644
     21 F         139.0594  141.3577  169.9562 F       1  UNL1       -0.1644
     22 F         141.3011  143.3250  169.6333 F       1  UNL1       -0.1644
     23 S         140.7443  140.5707  161.5180 S.O2    1  UNL1        0.0769
     24 O         139.2540  140.4089  161.4677 O.2     1  UNL1       -0.1497
     25 O         142.2400  140.6262  161.4191 O.2     1  UNL1       -0.1497
     26 C         140.8790  139.7092  160.2975 C.ar    1  UNL1        0.1254
     27 C         139.6532  139.2447  159.5683 C.ar    1  UNL1        0.0199
     28 C         139.7879  138.3832  158.3478 C.ar    1  UNL1       -0.0029
     29 C         141.1484  137.9861  157.8565 C.ar    1  UNL1       -0.0227
     30 C         142.3742  138.4506  158.5857 C.ar    1  UNL1       -0.0029
     31 C         142.2395  139.3121  159.8061 C.ar    1  UNL1        0.0199
     32 C         141.2831  137.1246  156.6359 C.3     1  UNL1        0.0189
     33 C         139.8346  137.3492  156.3176 C.3     1  UNL1        0.0044
     34 C         142.7316  136.9000  156.9543 C.3     1  UNL1        0.0044
     35 C         141.4178  136.2631  155.4155 C.3     1  UNL1        0.0044
@<TRIPOS>BOND
     1     1     2    1
     2     2     3   ar
     3     3     4   ar
     4     4     5   ar
     5     5     6   ar
     6     6     7   ar
     7     7     8    1
     8     6     9    1
     9     9    23    1
    10    23    24    2
    11    23    25    2
    12    23    26    1
    13    26    27   ar
    14    27    28   ar
    15    28    29   ar
    16    29    32    1
    17    32    33    1
    18    32    34    1
    19    32    35    1
    20    29    30   ar
    21    30    31   ar
    22     9    10    1
    23    10    11    1
    24    11    12   ar
    25    12    13   ar
    26    13    14   ar
    27    14    19    1
    28    19    20    1
    29    19    21    1
    30    19    22    1
    31    14    15   ar
    32    15    16   ar
    33    16    17    1
    34     7     2   ar
    35    31    26   ar
    36    16    11   ar
    37    17     5    1
    38    17    18    1
@<TRIPOS>MOLECULE
*****
 35 38 0 0 0
SMALL
GASTEIGER

@<TRIPOS>ATOM
      1 C         144.2193  142.3042  158.0557 C.3     1  UNL1        0.0307
      2 C         143.5121  141.9625  159.3336 C.ar    1  UNL1       -0.0245
      3 C         143.6100  142.8826  160.5141 C.ar    1  UNL1       -0.0032
      4 C         142.9029  142.5408  161.7921 C.ar    1  UNL1        0.0156
      5 C         142.0978  141.2790  161.8895 C.ar    1  UNL1        0.0641
      6 C         141.9999  140.3588  160.7089 C.ar    1  UNL1        0.0783
      7 C         142.7070  140.7006  159.4310 C.ar    1  UNL1       -0.0097
      8 C         142.7163  139.9002  158.1624 C.3     1  UNL1        0.0321
      9 N         141.2562  139.0612  160.5936 N.pl3   1  UNL1       -0.1852
     10 C         140.4268  138.3634  161.6305 C.3     1  UNL1        0.1450
     11 C         140.1362  138.7906  163.0387 C.ar    1  UNL1        0.0311
     12 C         139.2583  137.7986  163.7422 C.ar    1  UNL1        0.0017
     13 C         138.8474  138.0373  165.1649 C.ar    1  UNL1        0.0229
     14 C         139.3144  139.2680  165.8841 C.ar    1  UNL1        0.1540
     15 N         140.1923  140.2601  165.1805 N.ar    1  UNL1       -0.2269
     16 C         140.6032  140.0214  163.7578 C.ar    1  UNL1        0.1297
     17 N         141.4762  141.1288  163.2463 N.pl3   1  UNL1       -0.2972
     18 H         141.6664  141.8527  163.8858 H       1  UNL1        0.1536
     19 C         138.9034  139.5067  167.3068 C.3     1  UNL1        0.4349
     20 F         138.4926  139.7454  168.7296 F       1  UNL1       -0.1644
     21 F         137.6259  138.7594  167.0633 F       1  UNL1       -0.1644
     22 F         140.1810  140.2541  167.5504 F       1  UNL1       -0.1644
     23 S         141.3550  138.3702  159.2660 S.O2    1  UNL1        0.0769
     24 O         142.5840  137.6483  159.7332 O.2     1  UNL1       -0.1497
     25 O         140.1472  139.0025  158.6404 O.2     1  UNL1       -0.1497
     26 C         141.4539  137.6792  157.9384 C.ar    1  UNL1        0.1254
     27 C         142.6763  136.8790  157.5984 C.ar    1  UNL1        0.0199
     28 C         142.7750  136.1879  156.2707 C.ar    1  UNL1       -0.0029
     29 C         141.6515  136.2971  155.2830 C.ar    1  UNL1       -0.0227
     30 C         140.4291  137.0973  155.6229 C.ar    1  UNL1       -0.0029
     31 C         140.3303  137.7883  156.9505 C.ar    1  UNL1        0.0199
     32 C         141.7503  135.6060  153.9553 C.3     1  UNL1        0.0189
     33 C         142.0074  136.9247  153.2881 C.3     1  UNL1        0.0044
     34 C         141.4932  134.2874  154.6224 C.3     1  UNL1        0.0044
     35 C         141.8491  134.9150  152.6276 C.3     1  UNL1        0.0044
@<TRIPOS>BOND
     1     1     2    1
     2     2     3   ar
     3     3     4   ar
     4     4     5   ar
     5     5     6   ar
     6     6     7   ar
     7     7     8    1
     8     6     9    1
     9     9    23    1
    10    23    24    2
    11    23    25    2
    12    23    26    1
    13    26    27   ar
    14    27    28   ar
    15    28    29   ar
    16    29    32    1
    17    32    33    1
    18    32    34    1
    19    32    35    1
    20    29    30   ar
    21    30    31   ar
    22     9    10    1
    23    10    11    1
    24    11    12   ar
    25    12    13   ar
    26    13    14   ar
    27    14    19    1
    28    19    20    1
    29    19    21    1
    30    19    22    1
    31    14    15   ar
    32    15    16   ar
    33    16    17    1
    34     7     2   ar
    35    31    26   ar
    36    16    11   ar
    37    17     5    1
    38    17    18    1
@<TRIPOS>MOLECULE
*****
 35 38 0 0 0
SMALL
GASTEIGER

@<TRIPOS>ATOM
      1 C         145.5030  140.8355  156.3424 C.3     1  UNL1        0.0307
      2 C         144.4835  141.2204  157.3732 C.ar    1  UNL1       -0.0245
      3 C         144.6239  142.5132  158.1207 C.ar    1  UNL1       -0.0032
      4 C         143.6044  142.8980  159.1516 C.ar    1  UNL1        0.0156
      5 C         142.4446  141.9900  159.4349 C.ar    1  UNL1        0.0641
      6 C         142.3042  140.6971  158.6873 C.ar    1  UNL1        0.0783
      7 C         143.3237  140.3123  157.6565 C.ar    1  UNL1       -0.0097
      8 C         143.3378  139.0659  156.8221 C.3     1  UNL1        0.0321
      9 N         141.2330  139.6548  158.8144 N.pl3   1  UNL1       -0.1852
     10 C         140.0376  139.6480  159.7205 C.3     1  UNL1        0.1450
     11 C         139.6181  140.6817  160.7232 C.ar    1  UNL1        0.0311
     12 C         138.3529  140.2839  161.4239 C.ar    1  UNL1        0.0017
     13 C         137.7602  141.1819  162.4689 C.ar    1  UNL1        0.0229
     14 C         138.4325  142.4778  162.8132 C.ar    1  UNL1        0.1540
     15 N         139.6977  142.8757  162.1125 N.ar    1  UNL1       -0.2269
     16 C         140.2905  141.9776  161.0675 C.ar    1  UNL1        0.1297
     17 N         141.5484  142.5598  160.4941 N.pl3   1  UNL1       -0.2972
     18 H         141.8220  143.4312  160.8617 H       1  UNL1        0.1536
     19 C         137.8397  143.3758  163.8583 C.3     1  UNL1        0.4349
     20 F         137.2469  144.2738  164.9034 F       1  UNL1       -0.1644
     21 F         137.5063  144.3862  162.8010 F       1  UNL1       -0.1644
     22 F         138.1731  142.3654  164.9156 F       1  UNL1       -0.1644
     23 S         141.3761  138.4616  157.9168 S.O2    1  UNL1        0.0769
     24 O         142.2056  137.7754  158.9613 O.2     1  UNL1       -0.1497
     25 O         140.5702  138.9973  156.7707 O.2     1  UNL1       -0.1497
     26 C         141.5193  137.2684  157.0192 C.ar    1  UNL1        0.1254
     27 C         140.5941  137.0930  155.8515 C.ar    1  UNL1        0.0199
     28 C         140.7373  135.8997  154.9539 C.ar    1  UNL1       -0.0029
     29 C         141.8056  134.8820  155.2240 C.ar    1  UNL1       -0.0227
     30 C         142.7307  135.0574  156.3916 C.ar    1  UNL1       -0.0029
     31 C         142.5875  136.2505  157.2892 C.ar    1  UNL1        0.0199
     32 C         141.9487  133.6887  154.3263 C.3     1  UNL1        0.0189
     33 C         142.0085  132.7923  155.5275 C.3     1  UNL1        0.0044
     34 C         141.8889  134.5851  153.1251 C.3     1  UNL1        0.0044
     35 C         142.0919  132.4955  153.4287 C.3     1  UNL1        0.0044
@<TRIPOS>BOND
     1     1     2    1
     2     2     3   ar
     3     3     4   ar
     4     4     5   ar
     5     5     6   ar
     6     6     7   ar
     7     7     8    1
     8     6     9    1
     9     9    23    1
    10    23    24    2
    11    23    25    2
    12    23    26    1
    13    26    27   ar
    14    27    28   ar
    15    28    29   ar
    16    29    32    1
    17    32    33    1
    18    32    34    1
    19    32    35    1
    20    29    30   ar
    21    30    31   ar
    22     9    10    1
    23    10    11    1
    24    11    12   ar
    25    12    13   ar
    26    13    14   ar
    27    14    19    1
    28    19    20    1
    29    19    21    1
    30    19    22    1
    31    14    15   ar
    32    15    16   ar
    33    16    17    1
    34     7     2   ar
    35    31    26   ar
    36    16    11   ar
    37    17     5    1
    38    17    18    1
@<TRIPOS>MOLECULE
*****
 35 38 0 0 0
SMALL
GASTEIGER

@<TRIPOS>ATOM
      1 C         139.5070  136.8845  155.6545 C.3     1  UNL1        0.0307
      2 C         140.6964  137.7459  155.3488 C.ar    1  UNL1       -0.0245
      3 C         141.1455  137.9279  153.9293 C.ar    1  UNL1       -0.0032
      4 C         142.3348  138.7893  153.6236 C.ar    1  UNL1        0.0156
      5 C         143.0750  139.4686  154.7374 C.ar    1  UNL1        0.0641
      6 C         142.6259  139.2866  156.1569 C.ar    1  UNL1        0.0783
      7 C         141.4366  138.4252  156.4627 C.ar    1  UNL1       -0.0097
      8 C         140.8550  138.1361  157.8147 C.3     1  UNL1        0.0321
      9 N         143.2168  139.8685  157.4068 N.pl3   1  UNL1       -0.1852
     10 C         144.4029  140.7763  157.5458 C.3     1  UNL1        0.1450
     11 C         145.2909  141.3263  156.4692 C.ar    1  UNL1        0.0311
     12 C         146.3682  142.1997  157.0406 C.ar    1  UNL1        0.0017
     13 C         147.3669  142.8512  156.1305 C.ar    1  UNL1        0.0229
     14 C         147.2882  142.6293  154.6491 C.ar    1  UNL1        0.1540
     15 N         146.2109  141.7559  154.0778 N.ar    1  UNL1       -0.2269
     16 C         145.2122  141.1044  154.9878 C.ar    1  UNL1        0.1297
     17 N         144.2261  140.2776  154.2171 N.pl3   1  UNL1       -0.2972
     18 H         144.3508  140.2642  153.2407 H       1  UNL1        0.1536
     19 C         148.2869  143.2809  153.7391 C.3     1  UNL1        0.4349
     20 F         149.2855  143.9324  152.8291 F       1  UNL1       -0.1644
     21 F         149.0914  142.0151  153.7157 F       1  UNL1       -0.1644
     22 F         147.4823  144.5466  153.7625 F       1  UNL1       -0.1644
     23 S         142.5311  139.4931  158.6869 S.O2    1  UNL1        0.0769
     24 O         141.6182  140.6747  158.5444 O.2     1  UNL1       -0.1497
     25 O         143.3536  138.2746  158.9844 O.2     1  UNL1       -0.1497
     26 C         141.8453  139.1177  159.9670 C.ar    1  UNL1        0.1254
     27 C         142.3812  137.9936  160.8033 C.ar    1  UNL1        0.0199
     28 C         141.6954  137.6182  162.0835 C.ar    1  UNL1       -0.0029
     29 C         140.4737  138.3668  162.5273 C.ar    1  UNL1       -0.0227
     30 C         139.9378  139.4909  161.6911 C.ar    1  UNL1       -0.0029
     31 C         140.6236  139.8663  160.4110 C.ar    1  UNL1        0.0199
     32 C         139.7879  137.9914  163.8075 C.3     1  UNL1        0.0189
     33 C         141.0033  137.2221  164.2329 C.3     1  UNL1        0.0044
     34 C         138.5726  138.7606  163.3820 C.3     1  UNL1        0.0044
     35 C         139.1021  137.6159  165.0876 C.3     1  UNL1        0.0044
@<TRIPOS>BOND
     1     1     2    1
     2     2     3   ar
     3     3     4   ar
     4     4     5   ar
     5     5     6   ar
     6     6     7   ar
     7     7     8    1
     8     6     9    1
     9     9    23    1
    10    23    24    2
    11    23    25    2
    12    23    26    1
    13    26    27   ar
    14    27    28   ar
    15    28    29   ar
    16    29    32    1
    17    32    33    1
    18    32    34    1
    19    32    35    1
    20    29    30   ar
    21    30    31   ar
    22     9    10    1
    23    10    11    1
    24    11    12   ar
    25    12    13   ar
    26    13    14   ar
    27    14    19    1
    28    19    20    1
    29    19    21    1
    30    19    22    1
    31    14    15   ar
    32    15    16   ar
    33    16    17    1
    34     7     2   ar
    35    31    26   ar
    36    16    11   ar
    37    17     5    1
    38    17    18    1
@<TRIPOS>MOLECULE
*****
 35 38 0 0 0
SMALL
GASTEIGER

@<TRIPOS>ATOM
      1 C         137.7205  144.1506  163.2762 C.3     1  UNL1        0.0307
      2 C         138.3810  143.1745  162.3482 C.ar    1  UNL1       -0.0245
      3 C         138.0699  143.2062  160.8812 C.ar    1  UNL1       -0.0032
      4 C         138.7305  142.2302  159.9533 C.ar    1  UNL1        0.0156
      5 C         139.7021  141.2225  160.4923 C.ar    1  UNL1        0.0641
      6 C         140.0132  141.1909  161.9594 C.ar    1  UNL1        0.0783
      7 C         139.3527  142.1669  162.8873 C.ar    1  UNL1       -0.0097
      8 C         139.5466  142.2751  164.3707 C.3     1  UNL1        0.0321
      9 N         140.9440  140.2758  162.6986 N.pl3   1  UNL1       -0.1852
     10 C         141.7934  139.1663  162.1531 C.3     1  UNL1        0.1450
     11 C         141.9220  138.6979  160.7340 C.ar    1  UNL1        0.0311
     12 C         142.8850  137.5535  160.6197 C.ar    1  UNL1        0.0017
     13 C         143.1587  136.9345  159.2812 C.ar    1  UNL1        0.0229
     14 C         142.4696  137.4599  158.0568 C.ar    1  UNL1        0.1540
     15 N         141.5066  138.6042  158.1710 N.ar    1  UNL1       -0.2269
     16 C         141.2329  139.2232  159.5096 C.ar    1  UNL1        0.1297
     17 N         140.2449  140.3468  159.4021 N.pl3   1  UNL1       -0.2972
     18 H         139.9082  140.5343  158.4962 H       1  UNL1        0.1536
     19 C         142.7434  136.8408  156.7182 C.3     1  UNL1        0.4349
     20 F         143.0171  136.2218  155.3796 F       1  UNL1       -0.1644
     21 F         143.1836  135.5757  157.3932 F       1  UNL1       -0.1644
     22 F         142.3032  138.1059  156.0431 F       1  UNL1       -0.1644
     23 S         141.0376  140.4998  164.1787 S.O2    1  UNL1        0.0769
     24 O         139.9260  139.5169  164.3978 O.2     1  UNL1       -0.1497
     25 O         142.1524  141.5027  164.1417 O.2     1  UNL1       -0.1497
     26 C         141.1312  140.7238  165.6589 C.ar    1  UNL1        0.1254
     27 C         140.2066  139.9943  166.5879 C.ar    1  UNL1        0.0199
     28 C         140.3003  140.2183  168.0681 C.ar    1  UNL1       -0.0029
     29 C         141.3185  141.1719  168.6193 C.ar    1  UNL1       -0.0227
     30 C         142.2431  141.9015  167.6904 C.ar    1  UNL1       -0.0029
     31 C         142.1494  141.6774  166.2103 C.ar    1  UNL1        0.0199
     32 C         141.4121  141.3960  170.0996 C.3     1  UNL1        0.0189
     33 C         140.1752  142.2431  170.0496 C.3     1  UNL1        0.0044
     34 C         142.6490  140.5489  170.1496 C.3     1  UNL1        0.0044
     35 C         141.5058  141.6200  171.5798 C.3     1  UNL1        0.0044
@<TRIPOS>BOND
     1     1     2    1
     2     2     3   ar
     3     3     4   ar
     4     4     5   ar
     5     5     6   ar
     6     6     7   ar
     7     7     8    1
     8     6     9    1
     9     9    23    1
    10    23    24    2
    11    23    25    2
    12    23    26    1
    13    26    27   ar
    14    27    28   ar
    15    28    29   ar
    16    29    32    1
    17    32    33    1
    18    32    34    1
    19    32    35    1
    20    29    30   ar
    21    30    31   ar
    22     9    10    1
    23    10    11    1
    24    11    12   ar
    25    12    13   ar
    26    13    14   ar
    27    14    19    1
    28    19    20    1
    29    19    21    1
    30    19    22    1
    31    14    15   ar
    32    15    16   ar
    33    16    17    1
    34     7     2   ar
    35    31    26   ar
    36    16    11   ar
    37    17     5    1
    38    17    18    1
@<TRIPOS>MOLECULE
*****
 35 38 0 0 0
SMALL
GASTEIGER

@<TRIPOS>ATOM
      1 C         145.6060  142.1735  163.3575 C.3     1  UNL1        0.0307
      2 C         144.6223  141.9610  162.2452 C.ar    1  UNL1       -0.0245
      3 C         145.0942  141.9333  160.8218 C.ar    1  UNL1       -0.0032
      4 C         144.1105  141.7208  159.7095 C.ar    1  UNL1        0.0156
      5 C         142.6549  141.5360  160.0207 C.ar    1  UNL1        0.0641
      6 C         142.1829  141.5637  161.4442 C.ar    1  UNL1        0.0783
      7 C         143.1666  141.7762  162.5565 C.ar    1  UNL1       -0.0097
      8 C         142.8698  141.8316  164.0258 C.3     1  UNL1        0.0321
      9 N         140.7875  141.4016  161.9703 N.pl3   1  UNL1       -0.1852
     10 C         139.5195  141.1718  161.2026 C.3     1  UNL1        0.1450
     11 C         139.3336  141.0473  159.7194 C.ar    1  UNL1        0.0311
     12 C         137.8939  140.8206  159.3646 C.ar    1  UNL1        0.0017
     13 C         137.4906  140.6685  157.9279 C.ar    1  UNL1        0.0229
     14 C         138.5268  140.7431  156.8460 C.ar    1  UNL1        0.1540
     15 N         139.9665  140.9698  157.2008 N.ar    1  UNL1       -0.2269
     16 C         140.3699  141.1219  158.6374 C.ar    1  UNL1        0.1297
     17 N         141.8480  141.3394  158.7716 N.pl3   1  UNL1       -0.2972
     18 H         142.3557  141.3552  157.9282 H       1  UNL1        0.1536
     19 C         138.1234  140.5910  155.4092 C.3     1  UNL1        0.4349
     20 F         137.7199  140.4389  153.9726 F       1  UNL1       -0.1644
     21 F         139.5680  140.5630  155.0065 F       1  UNL1       -0.1644
     22 F         136.6788  140.6189  155.8120 F       1  UNL1       -0.1644
     23 S         140.6408  141.4796  163.4610 S.O2    1  UNL1        0.0769
     24 O         140.4284  142.9612  163.3625 O.2     1  UNL1       -0.1497
     25 O         140.8337  140.0186  163.7405 O.2     1  UNL1       -0.1497
     26 C         140.4941  141.5576  164.9517 C.ar    1  UNL1        0.1254
     27 C         140.4122  142.8939  165.6284 C.ar    1  UNL1        0.0199
     28 C         140.2655  142.9719  167.1192 C.ar    1  UNL1       -0.0029
     29 C         140.2006  141.7137  167.9333 C.ar    1  UNL1       -0.0227
     30 C         140.2824  140.3775  167.2566 C.ar    1  UNL1       -0.0029
     31 C         140.4292  140.2995  165.7659 C.ar    1  UNL1        0.0199
     32 C         140.0538  141.7917  169.4241 C.3     1  UNL1        0.0189
     33 C         140.5831  143.1951  169.4027 C.3     1  UNL1        0.0044
     34 C         139.5246  140.3884  169.4455 C.3     1  UNL1        0.0044
     35 C         139.9071  141.8698  170.9148 C.3     1  UNL1        0.0044
@<TRIPOS>BOND
     1     1     2    1
     2     2     3   ar
     3     3     4   ar
     4     4     5   ar
     5     5     6   ar
     6     6     7   ar
     7     7     8    1
     8     6     9    1
     9     9    23    1
    10    23    24    2
    11    23    25    2
    12    23    26    1
    13    26    27   ar
    14    27    28   ar
    15    28    29   ar
    16    29    32    1
    17    32    33    1
    18    32    34    1
    19    32    35    1
    20    29    30   ar
    21    30    31   ar
    22     9    10    1
    23    10    11    1
    24    11    12   ar
    25    12    13   ar
    26    13    14   ar
    27    14    19    1
    28    19    20    1
    29    19    21    1
    30    19    22    1
    31    14    15   ar
    32    15    16   ar
    33    16    17    1
    34     7     2   ar
    35    31    26   ar
    36    16    11   ar
    37    17     5    1
    38    17    18    1
