@<TRIPOS>MOLECULE
*****
 30 34 0 0 0
SMALL
GASTEIGER

@<TRIPOS>ATOM
      1 C         138.8968  138.5850  162.7214 C.3     1  UNL1        0.1063
      2 N         139.2522  139.0977  164.0855 N.3     1  UNL1       -0.2704
      3 C         140.4830  139.9338  164.2754 C.3     1  UNL1        0.0722
      4 C         140.8383  140.4465  165.6395 C.3     1  UNL1        0.0191
      5 C         139.9628  140.1231  166.8138 C.3     1  UNL1        0.0226
      6 C         138.7320  139.2870  166.6239 C.3     1  UNL1        0.0191
      7 C         138.3767  138.7743  165.2598 C.3     1  UNL1        0.0722
      8 C         139.1878  139.8829  168.0754 C.3     1  UNL1        0.0232
      9 C         139.9016  140.5774  169.1972 C.3     1  UNL1        0.0913
     10 N         141.1177  141.2468  168.6288 N.pl3   1  UNL1       -0.3015
     11 C         141.1555  140.9661  167.1558 C.3     1  UNL1        0.0913
     12 C         142.1199  142.0550  169.3983 C.ar    1  UNL1        0.0978
     13 C         143.6081  141.8684  169.3747 C.ar    1  UNL1        0.0440
     14 C         144.2179  142.8898  170.2883 C.ar    1  UNL1        0.1092
     15 N         143.1067  143.7078  170.8767 N.ar    1  UNL1       -0.2064
     16 S         141.8100  143.1918  170.3265 S.2     1  UNL1        0.0279
     17 C         138.2030  139.4825  161.7400 C.3     1  UNL1        0.1483
     18 O         136.9201  139.0432  161.0988 O.3     1  UNL1       -0.3786
     19 H         136.6068  139.7351  160.4955 H       1  UNL1        0.2108
     20 C         137.3096  141.9354  163.2183 C.3     1  UNL1        0.0306
     21 C         138.3454  142.0459  162.1390 C.ar    1  UNL1       -0.0238
     22 C         138.7922  140.8195  161.3999 C.ar    1  UNL1        0.0015
     23 C         139.8280  140.9299  160.3206 C.ar    1  UNL1       -0.0020
     24 C         140.4171  142.2667  159.9805 C.ar    1  UNL1        0.0060
     25 C         139.9704  143.4931  160.7196 C.ar    1  UNL1        0.0748
     26 C         138.9346  143.3827  161.7988 C.ar    1  UNL1        0.0233
     27 C         138.6927  144.7561  162.3514 C.3     1  UNL1        0.2352
     28 O         139.5790  145.7153  161.6137 O.3     1  UNL1       -0.4404
     29 C         140.3687  144.9348  160.6051 C.2     1  UNL1        0.3413
     30 O         141.3792  145.4971  159.6498 O.2     1  UNL1       -0.2449
@<TRIPOS>BOND
     1    20    21    1
     2    21    22   ar
     3    22    17    1
     4    17    18    1
     5    17     1    1
     6     1     2    1
     7     2     3    1
     8     3     4    1
     9     4     5    1
    10     5     6    1
    11     6     7    1
    12     5     8    1
    13     8     9    1
    14     9    10    1
    15    10    12    1
    16    12    13   ar
    17    13    14   ar
    18    14    15   ar
    19    15    16   ar
    20    10    11    1
    21    22    23   ar
    22    23    24   ar
    23    24    25   ar
    24    25    26   ar
    25    26    27    1
    26    27    28    1
    27    28    29    1
    28    29    30    2
    29    26    21   ar
    30     7     2    1
    31    16    12   ar
    32    29    25    1
    33    11     5    1
    34    18    19    1
@<TRIPOS>MOLECULE
*****
 30 34 0 0 0
SMALL
GASTEIGER

@<TRIPOS>ATOM
      1 C         139.0536  137.5793  165.2605 C.3     1  UNL1        0.1063
      2 N         140.0203  137.8185  164.1387 N.3     1  UNL1       -0.2704
      3 C         139.5386  137.8067  162.7183 C.3     1  UNL1        0.0722
      4 C         140.5053  138.0459  161.5966 C.3     1  UNL1        0.0191
      5 C         141.9537  138.2968  161.8953 C.3     1  UNL1        0.0226
      6 C         142.4354  138.3085  163.3158 C.3     1  UNL1        0.0191
      7 C         141.4687  138.0694  164.4375 C.3     1  UNL1        0.0722
      8 C         143.4234  138.5601  162.0390 C.3     1  UNL1        0.0232
      9 C         143.9985  138.7407  160.6654 C.3     1  UNL1        0.0913
     10 N         142.8841  138.5890  159.6727 N.pl3   1  UNL1       -0.3015
     11 C         141.6204  138.3147  160.4328 C.3     1  UNL1        0.0913
     12 C         143.0112  138.6934  158.1819 C.ar    1  UNL1        0.0978
     13 C         142.7801  137.5853  157.1976 C.ar    1  UNL1        0.0440
     14 C         143.0178  138.1312  155.8208 C.ar    1  UNL1        0.1092
     15 N         143.3958  139.5767  155.9541 N.ar    1  UNL1       -0.2064
     16 S         143.3917  139.9241  157.4134 S.2     1  UNL1        0.0279
     17 C         138.2282  138.7126  165.7938 C.3     1  UNL1        0.1483
     18 O         137.2915  138.4825  166.9425 O.3     1  UNL1       -0.3786
     19 H         136.8383  139.3118  167.1612 H       1  UNL1        0.2108
     20 C         140.0343  140.7697  167.0212 C.3     1  UNL1        0.0306
     21 C         139.2425  141.1045  165.7919 C.ar    1  UNL1       -0.0238
     22 C         138.3395  140.0760  165.1782 C.ar    1  UNL1        0.0015
     23 C         137.5478  140.4108  163.9490 C.ar    1  UNL1       -0.0020
     24 C         137.6590  141.7741  163.3334 C.ar    1  UNL1        0.0060
     25 C         138.5620  142.8026  163.9471 C.ar    1  UNL1        0.0748
     26 C         139.3538  142.4678  165.1764 C.ar    1  UNL1        0.0233
     27 C         140.1553  143.6778  165.5552 C.3     1  UNL1        0.2352
     28 O         139.8590  144.7603  164.5601 O.3     1  UNL1       -0.4404
     29 C         138.8743  144.2194  163.5663 C.2     1  UNL1        0.3413
     30 O         138.3022  144.9646  162.3968 O.2     1  UNL1       -0.2449
@<TRIPOS>BOND
     1    20    21    1
     2    21    22   ar
     3    22    17    1
     4    17    18    1
     5    17     1    1
     6     1     2    1
     7     2     3    1
     8     3     4    1
     9     4     5    1
    10     5     6    1
    11     6     7    1
    12     5     8    1
    13     8     9    1
    14     9    10    1
    15    10    12    1
    16    12    13   ar
    17    13    14   ar
    18    14    15   ar
    19    15    16   ar
    20    10    11    1
    21    22    23   ar
    22    23    24   ar
    23    24    25   ar
    24    25    26   ar
    25    26    27    1
    26    27    28    1
    27    28    29    1
    28    29    30    2
    29    26    21   ar
    30     7     2    1
    31    16    12   ar
    32    29    25    1
    33    11     5    1
    34    18    19    1
@<TRIPOS>MOLECULE
*****
 30 34 0 0 0
SMALL
GASTEIGER

@<TRIPOS>ATOM
      1 C         138.2792  140.1928  164.8664 C.3     1  UNL1        0.1063
      2 N         138.6804  141.3350  163.9807 N.3     1  UNL1       -0.2704
      3 C         139.1261  141.0718  162.5729 C.3     1  UNL1        0.0722
      4 C         139.5271  142.2140  161.6872 C.3     1  UNL1        0.0191
      5 C         139.4825  143.6194  162.2093 C.3     1  UNL1        0.0226
      6 C         139.0368  143.8827  163.6172 C.3     1  UNL1        0.0191
      7 C         138.6357  142.7405  164.5028 C.3     1  UNL1        0.0722
      8 C         139.4893  145.0703  162.5902 C.3     1  UNL1        0.0232
      9 C         139.9582  145.8589  161.4035 C.3     1  UNL1        0.0913
     10 N         140.2413  144.8954  160.2892 N.pl3   1  UNL1       -0.3015
     11 C         139.9473  143.5114  160.7872 C.3     1  UNL1        0.0913
     12 C         140.7322  145.2532  158.9177 C.ar    1  UNL1        0.0978
     13 C         139.9706  146.0271  157.8828 C.ar    1  UNL1        0.0440
     14 C         140.8386  146.1521  156.6658 C.ar    1  UNL1        0.1092
     15 N         142.1366  145.4554  156.9485 N.ar    1  UNL1       -0.2064
     16 S         142.0707  144.8999  158.3404 S.2     1  UNL1        0.0279
     17 C         139.3028  139.5194  165.7317 C.3     1  UNL1        0.1483
     18 O         139.9302  138.2314  165.2874 O.3     1  UNL1       -0.3786
     19 H         140.5652  137.9330  165.9572 H       1  UNL1        0.2108
     20 C         141.7414  141.2592  165.8954 C.3     1  UNL1        0.0306
     21 C         140.9184  141.0039  167.1232 C.ar    1  UNL1       -0.0238
     22 C         139.6991  140.1340  167.0414 C.ar    1  UNL1        0.0015
     23 C         138.8762  139.8787  168.2692 C.ar    1  UNL1       -0.0020
     24 C         139.2724  140.4933  169.5789 C.ar    1  UNL1        0.0060
     25 C         140.4916  141.3632  169.6607 C.ar    1  UNL1        0.0748
     26 C         141.3146  141.6184  168.4329 C.ar    1  UNL1        0.0233
     27 C         142.4560  142.5124  168.8176 C.3     1  UNL1        0.2352
     28 O         142.3385  142.8097  170.2831 O.3     1  UNL1       -0.4404
     29 C         141.1244  142.0994  170.8042 C.2     1  UNL1        0.3413
     30 O         140.6299  142.1214  172.2202 O.2     1  UNL1       -0.2449
@<TRIPOS>BOND
     1    20    21    1
     2    21    22   ar
     3    22    17    1
     4    17    18    1
     5    17     1    1
     6     1     2    1
     7     2     3    1
     8     3     4    1
     9     4     5    1
    10     5     6    1
    11     6     7    1
    12     5     8    1
    13     8     9    1
    14     9    10    1
    15    10    12    1
    16    12    13   ar
    17    13    14   ar
    18    14    15   ar
    19    15    16   ar
    20    10    11    1
    21    22    23   ar
    22    23    24   ar
    23    24    25   ar
    24    25    26   ar
    25    26    27    1
    26    27    28    1
    27    28    29    1
    28    29    30    2
    29    26    21   ar
    30     7     2    1
    31    16    12   ar
    32    29    25    1
    33    11     5    1
    34    18    19    1
@<TRIPOS>MOLECULE
*****
 30 34 0 0 0
SMALL
GASTEIGER

@<TRIPOS>ATOM
      1 C         138.1075  138.5521  162.1482 C.3     1  UNL1        0.1063
      2 N         138.9513  138.8202  163.3591 N.3     1  UNL1       -0.2704
      3 C         138.3330  139.4229  164.5857 C.3     1  UNL1        0.0722
      4 C         139.1768  139.6910  165.7964 C.3     1  UNL1        0.0191
      5 C         140.6389  139.3564  165.7807 C.3     1  UNL1        0.0226
      6 C         141.2572  138.7537  164.5542 C.3     1  UNL1        0.0191
      7 C         140.4134  138.4857  163.3434 C.3     1  UNL1        0.0722
      8 C         142.1067  139.0762  165.9122 C.3     1  UNL1        0.0232
      9 C         142.5380  139.4984  167.2855 C.3     1  UNL1        0.0913
     10 N         141.3368  140.0396  168.0027 N.pl3   1  UNL1       -0.3015
     11 C         140.1632  139.9518  167.0728 C.3     1  UNL1        0.0913
     12 C         141.3135  140.5745  169.4038 C.ar    1  UNL1        0.0978
     13 C         142.2978  141.5392  169.9957 C.ar    1  UNL1        0.0440
     14 C         141.8943  141.7996  171.4168 C.ar    1  UNL1        0.1092
     15 N         140.6607  140.9959  171.7032 N.ar    1  UNL1       -0.2064
     16 S         140.3017  140.2387  170.4590 S.2     1  UNL1        0.0279
     17 C         137.7183  139.6810  161.2404 C.3     1  UNL1        0.1483
     18 O         136.6479  139.4791  160.2091 O.3     1  UNL1       -0.3786
     19 H         136.5199  140.3014  159.7108 H       1  UNL1        0.2108
     20 C         140.3688  140.1384  159.9118 C.3     1  UNL1        0.0306
     21 C         139.7247  141.2404  160.6996 C.ar    1  UNL1       -0.0238
     22 C         138.3994  141.0117  161.3639 C.ar    1  UNL1        0.0015
     23 C         137.7553  142.1138  162.1517 C.ar    1  UNL1       -0.0020
     24 C         138.4364  143.4445  162.2751 C.ar    1  UNL1        0.0060
     25 C         139.7616  143.6732  161.6108 C.ar    1  UNL1        0.0748
     26 C         140.4058  142.5711  160.8230 C.ar    1  UNL1        0.0233
     27 C         141.7065  143.0869  160.2826 C.3     1  UNL1        0.2352
     28 O         141.8663  144.5077  160.7364 O.3     1  UNL1       -0.4404
     29 C         140.6643  144.8700  161.5572 C.2     1  UNL1        0.3413
     30 O         140.4096  146.1963  162.2100 O.2     1  UNL1       -0.2449
@<TRIPOS>BOND
     1    20    21    1
     2    21    22   ar
     3    22    17    1
     4    17    18    1
     5    17     1    1
     6     1     2    1
     7     2     3    1
     8     3     4    1
     9     4     5    1
    10     5     6    1
    11     6     7    1
    12     5     8    1
    13     8     9    1
    14     9    10    1
    15    10    12    1
    16    12    13   ar
    17    13    14   ar
    18    14    15   ar
    19    15    16   ar
    20    10    11    1
    21    22    23   ar
    22    23    24   ar
    23    24    25   ar
    24    25    26   ar
    25    26    27    1
    26    27    28    1
    27    28    29    1
    28    29    30    2
    29    26    21   ar
    30     7     2    1
    31    16    12   ar
    32    29    25    1
    33    11     5    1
    34    18    19    1
@<TRIPOS>MOLECULE
*****
 30 34 0 0 0
SMALL
GASTEIGER

@<TRIPOS>ATOM
      1 C         145.5838  142.5281  164.2089 C.3     1  UNL1        0.1063
      2 N         144.9893  141.5210  163.2696 N.3     1  UNL1       -0.2704
      3 C         144.7369  141.8886  161.8374 C.3     1  UNL1        0.0722
      4 C         144.1424  140.8815  160.8982 C.3     1  UNL1        0.0191
      5 C         143.8002  139.5068  161.3911 C.3     1  UNL1        0.0226
      6 C         144.0525  139.1391  162.8233 C.3     1  UNL1        0.0191
      7 C         144.6470  140.1462  163.7625 C.3     1  UNL1        0.0722
      8 C         143.4087  138.1010  161.7382 C.3     1  UNL1        0.0232
      9 C         142.8593  137.4540  160.5014 C.3     1  UNL1        0.0913
     10 N         142.9112  138.4600  159.3899 N.pl3   1  UNL1       -0.3015
     11 C         143.4926  139.7287  159.9398 C.3     1  UNL1        0.0913
     12 C         142.4607  138.2366  157.9768 C.ar    1  UNL1        0.0978
     13 C         142.5748  136.9540  157.2073 C.ar    1  UNL1        0.0440
     14 C         142.0016  137.1812  155.8399 C.ar    1  UNL1        0.1092
     15 N         141.5332  138.6042  155.7642 N.ar    1  UNL1       -0.2064
     16 S         141.8170  139.2564  157.0849 S.2     1  UNL1        0.0279
     17 C         144.6894  143.4412  164.9938 C.3     1  UNL1        0.1483
     18 O         145.2064  144.1186  166.2283 O.3     1  UNL1       -0.3786
     19 H         144.5061  144.6690  166.6124 H       1  UNL1        0.2108
     20 C         142.4451  141.8638  166.2083 C.3     1  UNL1        0.0306
     21 C         142.1557  142.8882  165.1516 C.ar    1  UNL1       -0.0238
     22 C         143.2778  143.6769  164.5443 C.ar    1  UNL1        0.0015
     23 C         142.9884  144.7014  163.4875 C.ar    1  UNL1       -0.0020
     24 C         141.5770  144.9371  163.0380 C.ar    1  UNL1        0.0060
     25 C         140.4549  144.1484  163.6453 C.ar    1  UNL1        0.0748
     26 C         140.7442  143.1240  164.7020 C.ar    1  UNL1        0.0233
     27 C         139.4424  142.5038  165.1152 C.3     1  UNL1        0.2352
     28 O         138.3485  143.1449  164.3138 O.3     1  UNL1       -0.4404
     29 C         138.9742  144.1613  163.4053 C.2     1  UNL1        0.3413
     30 O         138.2470  145.0370  162.4284 O.2     1  UNL1       -0.2449
@<TRIPOS>BOND
     1    20    21    1
     2    21    22   ar
     3    22    17    1
     4    17    18    1
     5    17     1    1
     6     1     2    1
     7     2     3    1
     8     3     4    1
     9     4     5    1
    10     5     6    1
    11     6     7    1
    12     5     8    1
    13     8     9    1
    14     9    10    1
    15    10    12    1
    16    12    13   ar
    17    13    14   ar
    18    14    15   ar
    19    15    16   ar
    20    10    11    1
    21    22    23   ar
    22    23    24   ar
    23    24    25   ar
    24    25    26   ar
    25    26    27    1
    26    27    28    1
    27    28    29    1
    28    29    30    2
    29    26    21   ar
    30     7     2    1
    31    16    12   ar
    32    29    25    1
    33    11     5    1
    34    18    19    1
@<TRIPOS>MOLECULE
*****
 30 34 0 0 0
SMALL
GASTEIGER

@<TRIPOS>ATOM
      1 C         140.7196  137.9906  161.6570 C.3     1  UNL1        0.1063
      2 N         140.3055  138.3534  163.0523 N.3     1  UNL1       -0.2704
      3 C         141.2307  139.1462  163.9271 C.3     1  UNL1        0.0722
      4 C         140.8166  139.5089  165.3224 C.3     1  UNL1        0.0191
      5 C         139.4771  139.0788  165.8429 C.3     1  UNL1        0.0226
      6 C         138.5519  138.2859  164.9681 C.3     1  UNL1        0.0191
      7 C         138.9661  137.9232  163.5728 C.3     1  UNL1        0.0722
      8 C         138.1759  138.7207  166.4976 C.3     1  UNL1        0.0232
      9 C         138.1860  139.2839  167.8879 C.3     1  UNL1        0.0913
     10 N         139.4936  139.9900  168.0924 N.pl3   1  UNL1       -0.3015
     11 C         140.2915  139.8633  166.8286 C.3     1  UNL1        0.0913
     12 C         139.9270  140.6985  169.3414 C.ar    1  UNL1        0.0978
     13 C         140.0707  142.1821  169.5088 C.ar    1  UNL1        0.0440
     14 C         140.5254  142.4483  170.9132 C.ar    1  UNL1        0.1092
     15 N         140.6628  141.1291  171.6139 N.ar    1  UNL1       -0.2064
     16 S         140.2929  140.0477  170.6424 S.2     1  UNL1        0.0279
     17 C         140.5295  138.9725  160.5390 C.3     1  UNL1        0.1483
     18 O         140.6164  138.5125  159.1140 O.3     1  UNL1       -0.3786
     19 H         140.4707  139.2665  158.5214 H       1  UNL1        0.2108
     20 C         142.8022  140.9123  160.8080 C.3     1  UNL1        0.0306
     21 C         141.3888  141.3843  160.9806 C.ar    1  UNL1       -0.0238
     22 C         140.2525  140.4144  160.8462 C.ar    1  UNL1        0.0015
     23 C         138.8392  140.8863  161.0188 C.ar    1  UNL1       -0.0020
     24 C         138.5622  142.3281  161.3259 C.ar    1  UNL1        0.0060
     25 C         139.6985  143.2980  161.4604 C.ar    1  UNL1        0.0748
     26 C         141.1118  142.8261  161.2877 C.ar    1  UNL1        0.0233
     27 C         142.0204  144.0045  161.4769 C.3     1  UNL1        0.2352
     28 O         141.1686  145.2048  161.7664 O.3     1  UNL1       -0.4404
     29 C         139.7336  144.7681  161.7562 C.2     1  UNL1        0.3413
     30 O         138.5428  145.6473  161.9992 O.2     1  UNL1       -0.2449
@<TRIPOS>BOND
     1    20    21    1
     2    21    22   ar
     3    22    17    1
     4    17    18    1
     5    17     1    1
     6     1     2    1
     7     2     3    1
     8     3     4    1
     9     4     5    1
    10     5     6    1
    11     6     7    1
    12     5     8    1
    13     8     9    1
    14     9    10    1
    15    10    12    1
    16    12    13   ar
    17    13    14   ar
    18    14    15   ar
    19    15    16   ar
    20    10    11    1
    21    22    23   ar
    22    23    24   ar
    23    24    25   ar
    24    25    26   ar
    25    26    27    1
    26    27    28    1
    27    28    29    1
    28    29    30    2
    29    26    21   ar
    30     7     2    1
    31    16    12   ar
    32    29    25    1
    33    11     5    1
    34    18    19    1
@<TRIPOS>MOLECULE
*****
 30 34 0 0 0
SMALL
GASTEIGER

@<TRIPOS>ATOM
      1 C         138.9048  140.4027  162.3099 C.3     1  UNL1        0.1063
      2 N         139.4307  141.4311  161.3529 N.3     1  UNL1       -0.2704
      3 C         138.5417  141.9764  160.2749 C.3     1  UNL1        0.0722
      4 C         139.0675  143.0048  159.3179 C.3     1  UNL1        0.0191
      5 C         140.4824  143.4880  159.4391 C.3     1  UNL1        0.0226
      6 C         141.3714  142.9427  160.5171 C.3     1  UNL1        0.0191
      7 C         140.8456  141.9143  161.4741 C.3     1  UNL1        0.0722
      8 C         141.8676  144.0635  159.4367 C.3     1  UNL1        0.0232
      9 C         141.9567  145.0527  158.3126 C.3     1  UNL1        0.0913
     10 N         140.6265  145.0886  157.6202 N.pl3   1  UNL1       -0.3015
     11 C         139.7154  144.1216  158.3164 C.3     1  UNL1        0.0913
     12 C         140.2701  145.9416  156.4391 C.ar    1  UNL1        0.0978
     13 C         139.3007  147.0863  156.4387 C.ar    1  UNL1        0.0440
     14 C         139.2519  147.6520  155.0503 C.ar    1  UNL1        0.1092
     15 N         140.1912  146.8570  154.1925 N.ar    1  UNL1       -0.2064
     16 S         140.8205  145.7999  155.0510 S.2     1  UNL1        0.0279
     17 C         138.0458  140.8232  163.4654 C.3     1  UNL1        0.1483
     18 O         136.6771  141.3845  163.2171 O.3     1  UNL1       -0.3786
     19 H         136.2591  141.6040  164.0645 H       1  UNL1        0.2108
     20 C         139.6966  143.0093  164.6884 C.3     1  UNL1        0.0306
     21 C         139.3807  141.7754  165.4806 C.ar    1  UNL1       -0.0238
     22 C         138.5553  140.6824  164.8692 C.ar    1  UNL1        0.0015
     23 C         138.2395  139.4484  165.6615 C.ar    1  UNL1       -0.0020
     24 C         138.7490  139.3076  167.0652 C.ar    1  UNL1        0.0060
     25 C         139.5744  140.4006  167.6766 C.ar    1  UNL1        0.0748
     26 C         139.8903  141.6345  166.8844 C.ar    1  UNL1        0.0233
     27 C         140.7209  142.5387  167.7461 C.3     1  UNL1        0.2352
     28 O         140.9184  141.8636  169.0710 O.3     1  UNL1       -0.4404
     29 C         140.2098  140.5422  169.0280 C.2     1  UNL1        0.3413
     30 O         140.1476  139.5386  170.1410 O.2     1  UNL1       -0.2449
@<TRIPOS>BOND
     1    20    21    1
     2    21    22   ar
     3    22    17    1
     4    17    18    1
     5    17     1    1
     6     1     2    1
     7     2     3    1
     8     3     4    1
     9     4     5    1
    10     5     6    1
    11     6     7    1
    12     5     8    1
    13     8     9    1
    14     9    10    1
    15    10    12    1
    16    12    13   ar
    17    13    14   ar
    18    14    15   ar
    19    15    16   ar
    20    10    11    1
    21    22    23   ar
    22    23    24   ar
    23    24    25   ar
    24    25    26   ar
    25    26    27    1
    26    27    28    1
    27    28    29    1
    28    29    30    2
    29    26    21   ar
    30     7     2    1
    31    16    12   ar
    32    29    25    1
    33    11     5    1
    34    18    19    1
@<TRIPOS>MOLECULE
*****
 30 34 0 0 0
SMALL
GASTEIGER

@<TRIPOS>ATOM
      1 C         145.0865  141.8605  162.2378 C.3     1  UNL1        0.1063
      2 N         144.4385  141.5055  163.5433 N.3     1  UNL1       -0.2704
      3 C         143.9137  142.5882  164.4390 C.3     1  UNL1        0.0722
      4 C         143.2658  142.2332  165.7444 C.3     1  UNL1        0.0191
      5 C         143.1426  140.7955  166.1541 C.3     1  UNL1        0.0226
      6 C         143.6673  139.7128  165.2584 C.3     1  UNL1        0.0191
      7 C         144.3153  140.0678  163.9530 C.3     1  UNL1        0.0722
      8 C         142.9493  139.4096  166.6944 C.3     1  UNL1        0.0232
      9 C         142.2614  139.5216  168.0227 C.3     1  UNL1        0.0913
     10 N         142.0295  140.9768  168.3033 N.pl3   1  UNL1       -0.3015
     11 C         142.5741  141.7641  167.1485 C.3     1  UNL1        0.0913
     12 C         141.3691  141.5449  169.5243 C.ar    1  UNL1        0.0978
     13 C         140.3068  142.6038  169.5401 C.ar    1  UNL1        0.0440
     14 C         139.9361  142.8672  170.9695 C.ar    1  UNL1        0.1092
     15 N         140.7693  141.9712  171.8372 N.ar    1  UNL1       -0.2064
     16 S         141.6549  141.1540  170.9439 S.2     1  UNL1        0.0279
     17 C         144.2573  142.4042  161.1123 C.3     1  UNL1        0.1483
     18 O         144.8577  142.5624  159.7469 O.3     1  UNL1       -0.3786
     19 H         144.1920  142.9236  159.1408 H       1  UNL1        0.2108
     20 C         142.0855  140.3514  160.8482 C.3     1  UNL1        0.0306
     21 C         141.7418  141.7633  161.2201 C.ar    1  UNL1       -0.0238
     22 C         142.8276  142.7897  161.3522 C.ar    1  UNL1        0.0015
     23 C         142.4839  144.2016  161.7242 C.ar    1  UNL1       -0.0020
     24 C         141.0543  144.5871  161.9641 C.ar    1  UNL1        0.0060
     25 C         139.9685  143.5607  161.8320 C.ar    1  UNL1        0.0748
     26 C         140.3122  142.1488  161.4600 C.ar    1  UNL1        0.0233
     27 C         139.0372  141.3607  161.4043 C.3     1  UNL1        0.2352
     28 O         137.9054  142.2854  161.7418 O.3     1  UNL1       -0.4404
     29 C         138.4810  143.6451  162.0062 C.2     1  UNL1        0.3413
     30 O         137.7053  144.8736  162.3792 O.2     1  UNL1       -0.2449
@<TRIPOS>BOND
     1    20    21    1
     2    21    22   ar
     3    22    17    1
     4    17    18    1
     5    17     1    1
     6     1     2    1
     7     2     3    1
     8     3     4    1
     9     4     5    1
    10     5     6    1
    11     6     7    1
    12     5     8    1
    13     8     9    1
    14     9    10    1
    15    10    12    1
    16    12    13   ar
    17    13    14   ar
    18    14    15   ar
    19    15    16   ar
    20    10    11    1
    21    22    23   ar
    22    23    24   ar
    23    24    25   ar
    24    25    26   ar
    25    26    27    1
    26    27    28    1
    27    28    29    1
    28    29    30    2
    29    26    21   ar
    30     7     2    1
    31    16    12   ar
    32    29    25    1
    33    11     5    1
    34    18    19    1
@<TRIPOS>MOLECULE
*****
 30 34 0 0 0
SMALL
GASTEIGER

@<TRIPOS>ATOM
      1 C         143.0454  142.9792  164.6841 C.3     1  UNL1        0.1063
      2 N         143.2849  142.9136  163.2048 N.3     1  UNL1       -0.2704
      3 C         144.6415  142.5469  162.6802 C.3     1  UNL1        0.0722
      4 C         144.8810  142.4813  161.2010 C.3     1  UNL1        0.0191
      5 C         143.7639  142.7824  160.2462 C.3     1  UNL1        0.0226
      6 C         142.4073  143.1492  160.7708 C.3     1  UNL1        0.0191
      7 C         142.1679  143.2148  162.2501 C.3     1  UNL1        0.0722
      8 C         142.7493  143.0558  159.1758 C.3     1  UNL1        0.0232
      9 C         143.4184  142.8743  157.8456 C.3     1  UNL1        0.0913
     10 N         144.8466  142.4886  158.0939 N.pl3   1  UNL1       -0.3015
     11 C         145.0601  142.4319  159.5776 C.3     1  UNL1        0.0913
     12 C         145.8798  142.2089  157.0432 C.ar    1  UNL1        0.0978
     13 C         147.2837  142.7367  157.0246 C.ar    1  UNL1        0.0440
     14 C         147.9621  142.2063  155.7964 C.ar    1  UNL1        0.1092
     15 N         146.9775  141.3506  155.0559 N.ar    1  UNL1       -0.2064
     16 S         145.6905  141.3523  155.8266 S.2     1  UNL1        0.0279
     17 C         143.0723  141.7239  165.5047 C.3     1  UNL1        0.1483
     18 O         143.7227  140.4864  164.9611 O.3     1  UNL1       -0.3786
     19 H         143.6530  139.7714  165.6129 H       1  UNL1        0.2108
     20 C         140.5292  140.2025  165.9718 C.3     1  UNL1        0.0306
     21 C         141.1773  140.9453  167.1024 C.ar    1  UNL1       -0.0238
     22 C         142.4488  141.7060  166.8689 C.ar    1  UNL1        0.0015
     23 C         143.0968  142.4488  167.9995 C.ar    1  UNL1       -0.0020
     24 C         142.4734  142.4310  169.3636 C.ar    1  UNL1        0.0060
     25 C         141.2019  141.6703  169.5972 C.ar    1  UNL1        0.0748
     26 C         140.5538  140.9275  168.4666 C.ar    1  UNL1        0.0233
     27 C         139.3130  140.2704  168.9945 C.3     1  UNL1        0.2352
     28 O         139.1942  140.6071  170.4514 O.3     1  UNL1       -0.4404
     29 C         140.3616  141.4723  170.8238 C.2     1  UNL1        0.3413
     30 O         140.6398  142.0399  172.1841 O.2     1  UNL1       -0.2449
@<TRIPOS>BOND
     1    20    21    1
     2    21    22   ar
     3    22    17    1
     4    17    18    1
     5    17     1    1
     6     1     2    1
     7     2     3    1
     8     3     4    1
     9     4     5    1
    10     5     6    1
    11     6     7    1
    12     5     8    1
    13     8     9    1
    14     9    10    1
    15    10    12    1
    16    12    13   ar
    17    13    14   ar
    18    14    15   ar
    19    15    16   ar
    20    10    11    1
    21    22    23   ar
    22    23    24   ar
    23    24    25   ar
    24    25    26   ar
    25    26    27    1
    26    27    28    1
    27    28    29    1
    28    29    30    2
    29    26    21   ar
    30     7     2    1
    31    16    12   ar
    32    29    25    1
    33    11     5    1
    34    18    19    1
