@<TRIPOS>MOLECULE
*****
 23 25 0 0 0
SMALL
GASTEIGER

@<TRIPOS>ATOM
      1 C         139.8027  139.8801  165.7560 C.3     1  UNL1        0.0847
      2 N         140.5419  139.1346  164.6846 N.3     1  UNL1       -0.2676
      3 C         141.4470  139.8742  163.7444 C.3     1  UNL1        0.0896
      4 C         142.1862  139.1288  162.6730 C.3     1  UNL1        0.0862
      5 N         142.0203  137.6438  162.5418 N.3     1  UNL1       -0.2951
      6 C         141.1152  136.9042  163.4819 C.3     1  UNL1        0.0862
      7 C         140.3760  137.6496  164.5533 C.3     1  UNL1        0.0896
      8 H         142.9487  137.2337  162.6432 H       1  UNL1        0.1233
      9 C         140.3379  139.9062  167.1570 C.ar    1  UNL1       -0.0075
     10 C         139.4078  140.1374  168.3110 C.ar    1  UNL1       -0.0030
     11 C         139.9431  140.1636  169.7120 C.ar    1  UNL1       -0.0003
     12 C         141.4083  139.9585  169.9591 C.ar    1  UNL1       -0.0000
     13 C         142.3383  139.7274  168.8052 C.ar    1  UNL1       -0.0003
     14 C         141.8032  139.7012  167.4042 C.ar    1  UNL1       -0.0030
     15 C         138.5284  140.5993  165.4264 C.3     1  UNL1        0.0499
     16 O         136.6914  141.3332  163.1709 O.3     1  UNL1       -0.5058
     17 C         137.6577  142.3456  163.7109 C.ar    1  UNL1        0.1297
     18 C         137.7054  143.7248  163.1232 C.ar    1  UNL1        0.0363
     19 C         138.6716  144.7371  163.6632 C.ar    1  UNL1        0.0031
     20 C         139.5901  144.3701  164.7909 C.ar    1  UNL1       -0.0001
     21 C         139.5424  142.9909  165.3786 C.ar    1  UNL1       -0.0012
     22 C         138.5762  141.9786  164.8386 C.ar    1  UNL1        0.0132
     23 H         136.1177  141.5623  162.4665 H       1  UNL1        0.2922
@<TRIPOS>BOND
     1    16    17    1
     2    17    18   ar
     3    18    19   ar
     4    19    20   ar
     5    20    21   ar
     6    21    22   ar
     7    22    15    1
     8     1    15    1
     9     1     9    1
    10     9    10   ar
    11    10    11   ar
    12    11    12   ar
    13    12    13   ar
    14    13    14   ar
    15     1     2    1
    16     2     3    1
    17     3     4    1
    18     4     5    1
    19     5     6    1
    20     6     7    1
    21    22    17   ar
    22    14     9   ar
    23     7     2    1
    24    16    23    1
    25     5     8    1
@<TRIPOS>MOLECULE
*****
 23 25 0 0 0
SMALL
GASTEIGER

@<TRIPOS>ATOM
      1 C         141.6881  141.7192  166.5716 C.3     1  UNL1        0.0847
      2 N         141.8189  142.2849  167.9548 N.3     1  UNL1       -0.2676
      3 C         143.1096  142.1403  168.7053 C.3     1  UNL1        0.0896
      4 C         143.2404  142.7060  170.0883 C.3     1  UNL1        0.0862
      5 N         142.0805  143.4162  170.7209 N.3     1  UNL1       -0.2951
      6 C         140.7898  143.5608  169.9704 C.3     1  UNL1        0.0862
      7 C         140.6590  142.9951  168.5873 C.3     1  UNL1        0.0896
      8 H         142.3987  144.3593  170.9437 H       1  UNL1        0.1233
      9 C         142.9080  141.5341  165.7186 C.ar    1  UNL1       -0.0075
     10 C         143.6771  142.7297  165.2403 C.ar    1  UNL1       -0.0030
     11 C         144.8970  142.5446  164.3872 C.ar    1  UNL1       -0.0003
     12 C         145.3477  141.1639  164.0126 C.ar    1  UNL1       -0.0000
     13 C         144.5786  139.9682  164.4909 C.ar    1  UNL1       -0.0003
     14 C         143.3587  140.1533  165.3439 C.ar    1  UNL1       -0.0030
     15 C         140.3375  141.3386  166.0416 C.3     1  UNL1        0.0499
     16 O         137.7591  140.4932  164.7622 O.3     1  UNL1       -0.5058
     17 C         138.2601  141.8958  164.5842 C.ar    1  UNL1        0.1297
     18 C         137.4720  142.8757  163.7665 C.ar    1  UNL1        0.0363
     19 C         137.9730  144.2782  163.5885 C.ar    1  UNL1        0.0031
     20 C         139.2622  144.7009  164.2282 C.ar    1  UNL1       -0.0001
     21 C         140.0504  143.7211  165.0459 C.ar    1  UNL1       -0.0012
     22 C         139.5493  142.3185  165.2239 C.ar    1  UNL1        0.0132
     23 H         136.9537  140.2291  164.3626 H       1  UNL1        0.2922
@<TRIPOS>BOND
     1    16    17    1
     2    17    18   ar
     3    18    19   ar
     4    19    20   ar
     5    20    21   ar
     6    21    22   ar
     7    22    15    1
     8     1    15    1
     9     1     9    1
    10     9    10   ar
    11    10    11   ar
    12    11    12   ar
    13    12    13   ar
    14    13    14   ar
    15     1     2    1
    16     2     3    1
    17     3     4    1
    18     4     5    1
    19     5     6    1
    20     6     7    1
    21    22    17   ar
    22    14     9   ar
    23     7     2    1
    24    16    23    1
    25     5     8    1
@<TRIPOS>MOLECULE
*****
 23 25 0 0 0
SMALL
GASTEIGER

@<TRIPOS>ATOM
      1 C         140.4046  141.1091  167.4332 C.3     1  UNL1        0.0847
      2 N         140.9762  140.9859  168.8145 N.3     1  UNL1       -0.2676
      3 C         140.4052  141.7995  169.9379 C.3     1  UNL1        0.0896
      4 C         140.9768  141.6764  171.3192 C.3     1  UNL1        0.0862
      5 N         142.1194  140.7395  171.5772 N.3     1  UNL1       -0.2951
      6 C         142.6905  139.9258  170.4538 C.3     1  UNL1        0.0862
      7 C         142.1189  140.0490  169.0725 C.3     1  UNL1        0.0896
      8 H         141.8043  140.0795  172.2882 H       1  UNL1        0.1233
      9 C         139.8578  139.8982  166.7370 C.ar    1  UNL1       -0.0075
     10 C         140.6429  139.2470  165.6372 C.ar    1  UNL1       -0.0030
     11 C         140.0961  138.0360  164.9410 C.ar    1  UNL1       -0.0003
     12 C         138.7642  137.4763  165.3446 C.ar    1  UNL1       -0.0000
     13 C         137.9791  138.1276  166.4444 C.ar    1  UNL1       -0.0003
     14 C         138.5259  139.3385  167.1406 C.ar    1  UNL1       -0.0030
     15 C         140.3797  142.4433  166.7481 C.3     1  UNL1        0.0499
     16 O         139.9069  144.3186  164.4547 O.3     1  UNL1       -0.5058
     17 C         141.2866  143.7942  164.7225 C.ar    1  UNL1        0.1297
     18 C         142.4297  144.2074  163.8436 C.ar    1  UNL1        0.0363
     19 C         143.8092  143.6829  164.1115 C.ar    1  UNL1        0.0031
     20 C         144.0456  142.7452  165.2582 C.ar    1  UNL1       -0.0001
     21 C         142.9025  142.3320  166.1370 C.ar    1  UNL1       -0.0012
     22 C         141.5230  142.8565  165.8692 C.ar    1  UNL1        0.0132
     23 H         139.7592  144.9043  163.7384 H       1  UNL1        0.2922
@<TRIPOS>BOND
     1    16    17    1
     2    17    18   ar
     3    18    19   ar
     4    19    20   ar
     5    20    21   ar
     6    21    22   ar
     7    22    15    1
     8     1    15    1
     9     1     9    1
    10     9    10   ar
    11    10    11   ar
    12    11    12   ar
    13    12    13   ar
    14    13    14   ar
    15     1     2    1
    16     2     3    1
    17     3     4    1
    18     4     5    1
    19     5     6    1
    20     6     7    1
    21    22    17   ar
    22    14     9   ar
    23     7     2    1
    24    16    23    1
    25     5     8    1
@<TRIPOS>MOLECULE
*****
 23 25 0 0 0
SMALL
GASTEIGER

@<TRIPOS>ATOM
      1 C         141.1301  141.0124  167.2180 C.3     1  UNL1        0.0847
      2 N         141.4471  140.9478  168.6828 N.3     1  UNL1       -0.2676
      3 C         142.5336  140.0387  169.1756 C.3     1  UNL1        0.0896
      4 C         142.8505  139.9740  170.6403 C.3     1  UNL1        0.0862
      5 N         142.0809  140.8185  171.6121 N.3     1  UNL1       -0.2951
      6 C         140.9944  141.7277  171.1193 C.3     1  UNL1        0.0862
      7 C         140.6775  141.7923  169.6546 C.3     1  UNL1        0.0896
      8 H         142.7609  141.4066  172.0940 H       1  UNL1        0.1233
      9 C         140.3444  139.9105  166.5714 C.ar    1  UNL1       -0.0075
     10 C         140.9802  139.0560  165.5151 C.ar    1  UNL1       -0.0030
     11 C         140.1944  137.9540  164.8685 C.ar    1  UNL1       -0.0003
     12 C         138.7728  137.7065  165.2780 C.ar    1  UNL1       -0.0000
     13 C         138.1370  138.5610  166.3342 C.ar    1  UNL1       -0.0003
     14 C         138.9227  139.6629  166.9809 C.ar    1  UNL1       -0.0030
     15 C         141.5990  142.1791  166.4000 C.3     1  UNL1        0.0499
     16 O         141.7873  141.8104  163.4287 O.3     1  UNL1       -0.5058
     17 C         140.7347  142.7086  164.0078 C.ar    1  UNL1        0.1297
     18 C         139.7763  143.4224  163.1013 C.ar    1  UNL1        0.0363
     19 C         138.7237  144.3206  163.6804 C.ar    1  UNL1        0.0031
     20 C         138.6295  144.5049  165.1660 C.ar    1  UNL1       -0.0001
     21 C         139.5879  143.7911  166.0726 C.ar    1  UNL1       -0.0012
     22 C         140.6405  142.8929  165.4934 C.ar    1  UNL1        0.0132
     23 H         141.8461  141.6953  162.5007 H       1  UNL1        0.2922
@<TRIPOS>BOND
     1    16    17    1
     2    17    18   ar
     3    18    19   ar
     4    19    20   ar
     5    20    21   ar
     6    21    22   ar
     7    22    15    1
     8     1    15    1
     9     1     9    1
    10     9    10   ar
    11    10    11   ar
    12    11    12   ar
    13    12    13   ar
    14    13    14   ar
    15     1     2    1
    16     2     3    1
    17     3     4    1
    18     4     5    1
    19     5     6    1
    20     6     7    1
    21    22    17   ar
    22    14     9   ar
    23     7     2    1
    24    16    23    1
    25     5     8    1
@<TRIPOS>MOLECULE
*****
 23 25 0 0 0
SMALL
GASTEIGER

@<TRIPOS>ATOM
      1 C         141.3772  140.4026  166.6644 C.3     1  UNL1        0.0847
      2 N         141.4593  140.3593  168.1616 N.3     1  UNL1       -0.2676
      3 C         140.2133  140.1744  168.9760 C.3     1  UNL1        0.0896
      4 C         140.2955  140.1311  170.4731 C.3     1  UNL1        0.0862
      5 N         141.6236  140.2727  171.1557 N.3     1  UNL1       -0.2951
      6 C         142.8696  140.4576  170.3413 C.3     1  UNL1        0.0862
      7 C         142.7874  140.5008  168.8442 C.3     1  UNL1        0.0896
      8 H         141.7590  139.4298  171.7140 H       1  UNL1        0.1233
      9 C         142.6329  140.4524  165.8455 C.ar    1  UNL1       -0.0075
     10 C         143.3089  139.1792  165.4309 C.ar    1  UNL1       -0.0030
     11 C         144.5647  139.2291  164.6119 C.ar    1  UNL1       -0.0003
     12 C         145.1443  140.5521  164.2076 C.ar    1  UNL1       -0.0000
     13 C         144.4683  141.8253  164.6222 C.ar    1  UNL1       -0.0003
     14 C         143.2126  141.7755  165.4411 C.ar    1  UNL1       -0.0030
     15 C         140.0392  140.3960  165.9862 C.3     1  UNL1        0.0499
     16 O         137.6509  140.3724  164.1709 O.3     1  UNL1       -0.5058
     17 C         138.2135  141.6766  164.6531 C.ar    1  UNL1        0.1297
     18 C         137.5820  142.9689  164.2278 C.ar    1  UNL1        0.0363
     19 C         138.1446  144.2731  164.7100 C.ar    1  UNL1        0.0031
     20 C         139.3387  144.2849  165.6177 C.ar    1  UNL1       -0.0001
     21 C         139.9703  142.9926  166.0431 C.ar    1  UNL1       -0.0012
     22 C         139.4077  141.6885  165.5608 C.ar    1  UNL1        0.0132
     23 H         136.9050  140.3650  163.6039 H       1  UNL1        0.2922
@<TRIPOS>BOND
     1    16    17    1
     2    17    18   ar
     3    18    19   ar
     4    19    20   ar
     5    20    21   ar
     6    21    22   ar
     7    22    15    1
     8     1    15    1
     9     1     9    1
    10     9    10   ar
    11    10    11   ar
    12    11    12   ar
    13    12    13   ar
    14    13    14   ar
    15     1     2    1
    16     2     3    1
    17     3     4    1
    18     4     5    1
    19     5     6    1
    20     6     7    1
    21    22    17   ar
    22    14     9   ar
    23     7     2    1
    24    16    23    1
    25     5     8    1
@<TRIPOS>MOLECULE
*****
 23 25 0 0 0
SMALL
GASTEIGER

@<TRIPOS>ATOM
      1 C         139.9731  139.7921  165.6418 C.3     1  UNL1        0.0847
      2 N         139.0157  140.2598  164.5859 N.3     1  UNL1       -0.2676
      3 C         138.3851  141.6166  164.6933 C.3     1  UNL1        0.0896
      4 C         137.4278  142.0843  163.6376 C.3     1  UNL1        0.0862
      5 N         137.1011  141.1953  162.4744 N.3     1  UNL1       -0.2951
      6 C         137.7317  139.8386  162.3671 C.3     1  UNL1        0.0862
      7 C         138.6890  139.3708  163.4228 C.3     1  UNL1        0.0896
      8 H         137.3589  141.7075  161.6309 H       1  UNL1        0.1233
      9 C         139.9857  140.4525  166.9885 C.ar    1  UNL1       -0.0075
     10 C         140.7441  141.7308  167.1900 C.ar    1  UNL1       -0.0030
     11 C         140.7565  142.3912  168.5368 C.ar    1  UNL1       -0.0003
     12 C         140.0107  141.7732  169.6820 C.ar    1  UNL1       -0.0000
     13 C         139.2523  140.4948  169.4806 C.ar    1  UNL1       -0.0003
     14 C         139.2398  139.8344  168.1339 C.ar    1  UNL1       -0.0030
     15 C         140.9180  138.6640  165.3508 C.3     1  UNL1        0.0499
     16 O         141.2572  136.9466  162.9145 O.3     1  UNL1       -0.5058
     17 C         142.2567  138.0231  163.2184 C.ar    1  UNL1        0.1297
     18 C         143.4257  138.2408  162.3041 C.ar    1  UNL1        0.0363
     19 C         144.4251  139.3172  162.6080 C.ar    1  UNL1        0.0031
     20 C         144.2555  140.1759  163.8261 C.ar    1  UNL1       -0.0001
     21 C         143.0865  139.9582  164.7404 C.ar    1  UNL1       -0.0012
     22 C         142.0871  138.8818  164.4365 C.ar    1  UNL1        0.0132
     23 H         141.3631  136.4101  162.1536 H       1  UNL1        0.2922
@<TRIPOS>BOND
     1    16    17    1
     2    17    18   ar
     3    18    19   ar
     4    19    20   ar
     5    20    21   ar
     6    21    22   ar
     7    22    15    1
     8     1    15    1
     9     1     9    1
    10     9    10   ar
    11    10    11   ar
    12    11    12   ar
    13    12    13   ar
    14    13    14   ar
    15     1     2    1
    16     2     3    1
    17     3     4    1
    18     4     5    1
    19     5     6    1
    20     6     7    1
    21    22    17   ar
    22    14     9   ar
    23     7     2    1
    24    16    23    1
    25     5     8    1
@<TRIPOS>MOLECULE
*****
 23 25 0 0 0
SMALL
GASTEIGER

@<TRIPOS>ATOM
      1 C         140.6253  142.1010  167.1610 C.3     1  UNL1        0.0847
      2 N         141.4697  142.4760  168.3428 N.3     1  UNL1       -0.2676
      3 C         140.8984  143.3380  169.4294 C.3     1  UNL1        0.0896
      4 C         141.7427  143.7130  170.6111 C.3     1  UNL1        0.0862
      5 N         143.1582  143.2260  170.7062 N.3     1  UNL1       -0.2951
      6 C         143.7295  142.3640  169.6196 C.3     1  UNL1        0.0862
      7 C         142.8852  141.9890  168.4379 C.3     1  UNL1        0.0896
      8 H         143.2285  142.6926  171.5728 H       1  UNL1        0.1233
      9 C         140.5930  142.9869  165.9510 C.ar    1  UNL1       -0.0075
     10 C         141.7750  143.0404  165.0290 C.ar    1  UNL1       -0.0030
     11 C         141.7427  143.9263  163.8189 C.ar    1  UNL1       -0.0003
     12 C         140.5285  144.7586  163.5309 C.ar    1  UNL1       -0.0000
     13 C         139.3465  144.7050  164.4529 C.ar    1  UNL1       -0.0003
     14 C         139.3788  143.8192  165.6629 C.ar    1  UNL1       -0.0030
     15 C         139.8132  140.8402  167.1894 C.3     1  UNL1        0.0499
     16 O         137.6925  139.0506  166.0492 O.3     1  UNL1       -0.5058
     17 C         139.1382  138.7854  165.7498 C.ar    1  UNL1        0.1297
     18 C         139.5235  137.6254  164.8804 C.ar    1  UNL1        0.0363
     19 C         140.9692  137.3602  164.5811 C.ar    1  UNL1        0.0031
     20 C         142.0295  138.2550  165.1512 C.ar    1  UNL1       -0.0001
     21 C         141.6442  139.4150  166.0206 C.ar    1  UNL1       -0.0012
     22 C         140.1986  139.6802  166.3199 C.ar    1  UNL1        0.0132
     23 H         137.0301  138.4917  165.6931 H       1  UNL1        0.2922
@<TRIPOS>BOND
     1    16    17    1
     2    17    18   ar
     3    18    19   ar
     4    19    20   ar
     5    20    21   ar
     6    21    22   ar
     7    22    15    1
     8     1    15    1
     9     1     9    1
    10     9    10   ar
    11    10    11   ar
    12    11    12   ar
    13    12    13   ar
    14    13    14   ar
    15     1     2    1
    16     2     3    1
    17     3     4    1
    18     4     5    1
    19     5     6    1
    20     6     7    1
    21    22    17   ar
    22    14     9   ar
    23     7     2    1
    24    16    23    1
    25     5     8    1
@<TRIPOS>MOLECULE
*****
 23 25 0 0 0
SMALL
GASTEIGER

@<TRIPOS>ATOM
      1 C         141.0824  141.4450  166.4542 C.3     1  UNL1        0.0847
      2 N         142.0756  140.8016  165.5324 N.3     1  UNL1       -0.2676
      3 C         142.2934  139.3183  165.5820 C.3     1  UNL1        0.0896
      4 C         143.2866  138.6749  164.6603 C.3     1  UNL1        0.0862
      5 N         144.0620  139.5147  163.6891 N.3     1  UNL1       -0.2951
      6 C         143.8442  140.9980  163.6395 C.3     1  UNL1        0.0862
      7 C         142.8511  141.6414  164.5612 C.3     1  UNL1        0.0896
      8 H         143.8540  139.1553  162.7574 H       1  UNL1        0.1233
      9 C         141.5388  142.0316  167.7571 C.ar    1  UNL1       -0.0075
     10 C         142.9316  141.7717  168.2496 C.ar    1  UNL1       -0.0030
     11 C         143.3880  142.3584  169.5526 C.ar    1  UNL1       -0.0003
     12 C         142.4516  143.2048  170.3629 C.ar    1  UNL1       -0.0000
     13 C         141.0588  143.4646  169.8704 C.ar    1  UNL1       -0.0003
     14 C         140.6024  142.8780  168.5675 C.ar    1  UNL1       -0.0030
     15 C         139.6328  141.5018  166.0729 C.3     1  UNL1        0.0499
     16 O         137.4444  140.8010  164.1443 O.3     1  UNL1       -0.5058
     17 C         138.0647  142.1664  164.1109 C.ar    1  UNL1        0.1297
     18 C         137.5908  143.1812  163.1132 C.ar    1  UNL1        0.0363
     19 C         138.2111  144.5465  163.0799 C.ar    1  UNL1        0.0031
     20 C         139.3053  144.8969  164.0442 C.ar    1  UNL1       -0.0001
     21 C         139.7792  143.8821  165.0419 C.ar    1  UNL1       -0.0012
     22 C         139.1589  142.5168  165.0752 C.ar    1  UNL1        0.0132
     23 H         136.7609  140.5821  163.5419 H       1  UNL1        0.2922
@<TRIPOS>BOND
     1    16    17    1
     2    17    18   ar
     3    18    19   ar
     4    19    20   ar
     5    20    21   ar
     6    21    22   ar
     7    22    15    1
     8     1    15    1
     9     1     9    1
    10     9    10   ar
    11    10    11   ar
    12    11    12   ar
    13    12    13   ar
    14    13    14   ar
    15     1     2    1
    16     2     3    1
    17     3     4    1
    18     4     5    1
    19     5     6    1
    20     6     7    1
    21    22    17   ar
    22    14     9   ar
    23     7     2    1
    24    16    23    1
    25     5     8    1
@<TRIPOS>MOLECULE
*****
 23 25 0 0 0
SMALL
GASTEIGER

@<TRIPOS>ATOM
      1 C         140.4041  141.4532  166.4361 C.3     1  UNL1        0.0847
      2 N         140.2306  141.5260  167.9243 N.3     1  UNL1       -0.2676
      3 C         140.6399  142.7631  168.6674 C.3     1  UNL1        0.0896
      4 C         140.4664  142.8359  170.1555 C.3     1  UNL1        0.0862
      5 N         139.8836  141.6718  170.9005 N.3     1  UNL1       -0.2951
      6 C         139.4743  140.4348  170.1574 C.3     1  UNL1        0.0862
      7 C         139.6478  140.3619  168.6693 C.3     1  UNL1        0.0896
      8 H         139.0519  142.0158  171.3803 H       1  UNL1        0.1233
      9 C         139.5374  142.2856  165.5384 C.ar    1  UNL1       -0.0075
     10 C         138.4688  141.6333  164.7121 C.ar    1  UNL1       -0.0030
     11 C         137.6021  142.4657  163.8143 C.ar    1  UNL1       -0.0003
     12 C         137.8039  143.9503  163.7428 C.ar    1  UNL1       -0.0000
     13 C         138.8725  144.6026  164.5691 C.ar    1  UNL1       -0.0003
     14 C         139.7392  143.7702  165.4669 C.ar    1  UNL1       -0.0030
     15 C         141.4443  140.5480  165.8457 C.3     1  UNL1        0.0499
     16 O         143.2414  138.8797  164.1174 O.3     1  UNL1       -0.5058
     17 C         143.6293  140.2865  164.4645 C.ar    1  UNL1        0.1297
     18 C         144.9156  140.8591  163.9475 C.ar    1  UNL1        0.0363
     19 C         145.3034  142.2659  164.2946 C.ar    1  UNL1        0.0031
     20 C         144.4048  143.1001  165.1587 C.ar    1  UNL1       -0.0001
     21 C         143.1185  142.5275  165.6758 C.ar    1  UNL1       -0.0012
     22 C         142.7307  141.1207  165.3287 C.ar    1  UNL1        0.0132
     23 H         143.8027  138.3586  163.5776 H       1  UNL1        0.2922
@<TRIPOS>BOND
     1    16    17    1
     2    17    18   ar
     3    18    19   ar
     4    19    20   ar
     5    20    21   ar
     6    21    22   ar
     7    22    15    1
     8     1    15    1
     9     1     9    1
    10     9    10   ar
    11    10    11   ar
    12    11    12   ar
    13    12    13   ar
    14    13    14   ar
    15     1     2    1
    16     2     3    1
    17     3     4    1
    18     4     5    1
    19     5     6    1
    20     6     7    1
    21    22    17   ar
    22    14     9   ar
    23     7     2    1
    24    16    23    1
    25     5     8    1
