@<TRIPOS>MOLECULE
*****
 35 38 0 0 0
SMALL
GASTEIGER

@<TRIPOS>ATOM
      1 C         140.6366  142.4136  163.8336 C.ar    1  UNL1        0.1683
      2 N         141.0238  142.9068  165.1961 N.ar    1  UNL1       -0.2101
      3 C         140.7722  142.0519  166.4028 C.ar    1  UNL1        0.1543
      4 C         140.1334  140.7038  166.2467 C.ar    1  UNL1        0.1485
      5 N         139.7641  139.6466  167.2447 N.ar    1  UNL1       -0.2194
      6 C         139.1486  138.4999  166.4988 C.ar    1  UNL1        0.1798
      7 N         139.1375  138.8485  165.0399 N.ar    1  UNL1       -0.2944
      8 C         139.7461  140.2106  164.8841 C.ar    1  UNL1        0.1672
      9 N         139.9977  141.0655  163.6775 N.ar    1  UNL1       -0.2077
     10 C         141.3912  144.9782  160.2137 C.ar    1  UNL1        0.3201
     11 N         139.9871  144.7399  160.6845 N.ar    1  UNL1       -0.1926
     12 C         139.7355  143.8850  161.8911 C.ar    1  UNL1        0.1082
     13 C         140.8881  143.2685  162.6269 C.ar    1  UNL1        0.0744
     14 C         142.2922  143.5068  162.1561 C.ar    1  UNL1        0.1082
     15 N         142.5438  144.3617  160.9495 N.ar    1  UNL1       -0.1926
     16 C         140.6879  145.7978  157.8507 C.3     1  UNL1        0.2559
     17 O         141.6427  145.8331  159.0071 O.3     1  UNL1       -0.4426
     18 N         141.1595  142.5453  167.7654 N.pl3   1  UNL1       -0.2868
     19 C         142.5111  142.2157  168.3261 C.3     1  UNL1        0.1243
     20 C         142.8985  142.7089  169.6887 C.3     1  UNL1        0.1636
     21 O         141.9342  143.5318  170.4905 O.3     1  UNL1       -0.3501
     22 C         140.5825  143.8614  169.9298 C.3     1  UNL1        0.1636
     23 C         140.1952  143.3681  168.5672 C.3     1  UNL1        0.1243
     24 C         138.6103  137.9863  163.9314 C.3     1  UNL1        0.1090
     25 C         139.4876  137.6473  162.7629 C.3     1  UNL1        0.0246
     26 C         140.9431  137.3556  162.9776 C.3     1  UNL1        0.0020
     27 C         141.9834  138.1529  162.2480 C.3     1  UNL1        0.0006
     28 C         143.2725  138.5054  162.9292 C.3     1  UNL1        0.0096
     29 C         143.2732  139.4624  164.0842 C.3     1  UNL1        0.0871
     30 C         144.2414  140.6078  164.1087 C.2     1  UNL1        0.2443
     31 O         144.1094  141.6794  165.1500 O.2     1  UNL1       -0.2730
     32 N         145.3416  140.6817  163.0918 N.am    1  UNL1       -0.1970
     33 O         146.3098  141.8271  163.1163 O.3     1  UNL1       -0.2952
     34 H         145.4282  139.9784  162.4084 H       1  UNL1        0.1822
     35 H         146.0848  142.4252  163.8460 H       1  UNL1        0.2414
@<TRIPOS>BOND
     1    16    17    1
     2    17    10    1
     3    10    11   ar
     4    11    12   ar
     5    12    13   ar
     6    13     1    1
     7     1     2   ar
     8     2     3   ar
     9     3    18    1
    10    18    19    1
    11    19    20    1
    12    20    21    1
    13    21    22    1
    14    22    23    1
    15     3     4   ar
    16     4     5   ar
    17     5     6   ar
    18     6     7   ar
    19     7    24    1
    20    24    25    1
    21    25    26    1
    22    26    27    1
    23    27    28    1
    24    28    29    1
    25    29    30    1
    26    30    31    2
    27    30    32   am
    28    32    33    1
    29     7     8   ar
    30     8     9   ar
    31    13    14   ar
    32    14    15   ar
    33    15    10   ar
    34     9     1   ar
    35    23    18    1
    36     8     4   ar
    37    32    34    1
    38    33    35    1
@<TRIPOS>MOLECULE
*****
 35 38 0 0 0
SMALL
GASTEIGER

@<TRIPOS>ATOM
      1 C         141.2430  142.3078  164.1387 C.ar    1  UNL1        0.1683
      2 N         140.6592  142.4488  165.5131 N.ar    1  UNL1       -0.2101
      3 C         141.0539  141.4906  166.5977 C.ar    1  UNL1        0.1543
      4 C         142.0323  140.3913  166.3076 C.ar    1  UNL1        0.1485
      5 N         142.6059  139.3052  167.1686 N.ar    1  UNL1       -0.2194
      6 C         143.5442  138.4928  166.3262 C.ar    1  UNL1        0.1798
      7 N         143.5505  139.0769  164.9446 N.ar    1  UNL1       -0.2944
      8 C         142.6162  140.2503  164.9331 C.ar    1  UNL1        0.1672
      9 N         142.2215  141.2085  163.8486 N.ar    1  UNL1       -0.2077
     10 C         140.0592  145.1823  160.8851 C.ar    1  UNL1        0.3201
     11 N         141.4812  144.7174  160.9944 N.ar    1  UNL1       -0.1926
     12 C         141.8758  143.7593  162.0789 C.ar    1  UNL1        0.1082
     13 C         140.8484  143.2660  163.0541 C.ar    1  UNL1        0.0744
     14 C         139.4265  143.7308  162.9449 C.ar    1  UNL1        0.1082
     15 N         139.0318  144.6891  161.8603 N.ar    1  UNL1       -0.1926
     16 C         140.1923  145.9563  158.4086 C.3     1  UNL1        0.2559
     17 O         139.6647  146.1405  159.8006 O.3     1  UNL1       -0.4426
     18 N         140.4700  141.6318  167.9722 N.pl3   1  UNL1       -0.2868
     19 C         139.7117  140.4921  168.5855 C.3     1  UNL1        0.1243
     20 C         139.1278  140.6332  169.9600 C.3     1  UNL1        0.1636
     21 O         139.3023  141.9139  170.7210 O.3     1  UNL1       -0.3501
     22 C         140.0606  143.0535  170.1077 C.3     1  UNL1        0.1636
     23 C         140.6445  142.9125  168.7332 C.3     1  UNL1        0.1243
     24 C         144.3508  138.5756  163.7791 C.3     1  UNL1        0.1090
     25 C         143.7928  138.6703  162.3899 C.3     1  UNL1        0.0246
     26 C         142.6299  137.8122  161.9888 C.3     1  UNL1        0.0020
     27 C         141.2421  138.3813  161.9901 C.3     1  UNL1        0.0006
     28 C         140.1696  137.7412  162.8208 C.3     1  UNL1        0.0096
     29 C         139.6276  138.4536  164.0244 C.3     1  UNL1        0.0871
     30 C         138.5667  139.5014  163.8612 C.2     1  UNL1        0.2443
     31 O         138.0587  140.2473  165.0593 O.2     1  UNL1       -0.2730
     32 N         138.0138  139.8031  162.4999 N.am    1  UNL1       -0.1970
     33 O         136.9528  140.8509  162.3367 O.3     1  UNL1       -0.2952
     34 H         138.3472  139.3135  161.7136 H       1  UNL1        0.1822
     35 H         136.7400  141.2331  163.2024 H       1  UNL1        0.2414
@<TRIPOS>BOND
     1    16    17    1
     2    17    10    1
     3    10    11   ar
     4    11    12   ar
     5    12    13   ar
     6    13     1    1
     7     1     2   ar
     8     2     3   ar
     9     3    18    1
    10    18    19    1
    11    19    20    1
    12    20    21    1
    13    21    22    1
    14    22    23    1
    15     3     4   ar
    16     4     5   ar
    17     5     6   ar
    18     6     7   ar
    19     7    24    1
    20    24    25    1
    21    25    26    1
    22    26    27    1
    23    27    28    1
    24    28    29    1
    25    29    30    1
    26    30    31    2
    27    30    32   am
    28    32    33    1
    29     7     8   ar
    30     8     9   ar
    31    13    14   ar
    32    14    15   ar
    33    15    10   ar
    34     9     1   ar
    35    23    18    1
    36     8     4   ar
    37    32    34    1
    38    33    35    1
@<TRIPOS>MOLECULE
*****
 35 38 0 0 0
SMALL
GASTEIGER

@<TRIPOS>ATOM
      1 C         139.9643  140.6969  161.5750 C.ar    1  UNL1        0.1683
      2 N         139.2307  139.9319  162.6363 N.ar    1  UNL1       -0.2101
      3 C         139.7819  139.8660  164.0298 C.ar    1  UNL1        0.1543
      4 C         141.0668  140.5651  164.3619 C.ar    1  UNL1        0.1485
      5 N         141.8482  140.6764  165.6374 N.ar    1  UNL1       -0.2194
      6 C         143.0649  141.5102  165.3643 C.ar    1  UNL1        0.1798
      7 N         143.0353  141.9142  163.9201 N.ar    1  UNL1       -0.2944
      8 C         141.8004  141.3301  163.3005 C.ar    1  UNL1        0.1672
      9 N         141.2492  141.3960  161.9070 N.ar    1  UNL1       -0.2077
     10 C         138.3108  140.8947  157.3944 C.ar    1  UNL1        0.3201
     11 N         139.6432  141.5103  157.7039 N.ar    1  UNL1       -0.1926
     12 C         140.1944  141.4443  159.0974 C.ar    1  UNL1        0.1082
     13 C         139.4131  140.7628  160.1814 C.ar    1  UNL1        0.0744
     14 C         138.0808  140.1472  159.8720 C.ar    1  UNL1        0.1082
     15 N         137.5296  140.2131  158.4784 N.ar    1  UNL1       -0.1926
     16 C         136.2796  141.0712  155.7842 C.3     1  UNL1        0.2559
     17 O         137.7597  140.9606  156.0009 O.3     1  UNL1       -0.4426
     18 N         139.0482  139.1010  165.0912 N.pl3   1  UNL1       -0.2868
     19 C         138.5430  139.8098  166.3128 C.3     1  UNL1        0.1243
     20 C         137.8093  139.0449  167.3742 C.3     1  UNL1        0.1636
     21 O         137.5808  137.5711  167.2139 O.3     1  UNL1       -0.3501
     22 C         138.0859  136.8623  165.9923 C.3     1  UNL1        0.1636
     23 C         138.8197  137.6272  164.9309 C.3     1  UNL1        0.1243
     24 C         144.0607  142.7548  163.2185 C.3     1  UNL1        0.1090
     25 C         143.6556  144.0440  162.5675 C.3     1  UNL1        0.0246
     26 C         143.0772  145.1529  163.3954 C.3     1  UNL1        0.0020
     27 C         141.7037  145.0131  163.9819 C.3     1  UNL1        0.0006
     28 C         140.5205  144.8135  163.0818 C.3     1  UNL1        0.0096
     29 C         139.1715  144.5222  163.6697 C.3     1  UNL1        0.0871
     30 C         138.2560  143.5425  162.9974 C.2     1  UNL1        0.2443
     31 O         137.9961  143.6483  161.5239 O.2     1  UNL1       -0.2730
     32 N         137.6005  142.4571  163.7985 N.am    1  UNL1       -0.1970
     33 O         136.6850  141.4774  163.1262 O.3     1  UNL1       -0.2952
     34 H         137.7711  142.3876  164.7656 H       1  UNL1        0.1822
     35 H         136.6269  141.6855  162.1806 H       1  UNL1        0.2414
@<TRIPOS>BOND
     1    16    17    1
     2    17    10    1
     3    10    11   ar
     4    11    12   ar
     5    12    13   ar
     6    13     1    1
     7     1     2   ar
     8     2     3   ar
     9     3    18    1
    10    18    19    1
    11    19    20    1
    12    20    21    1
    13    21    22    1
    14    22    23    1
    15     3     4   ar
    16     4     5   ar
    17     5     6   ar
    18     6     7   ar
    19     7    24    1
    20    24    25    1
    21    25    26    1
    22    26    27    1
    23    27    28    1
    24    28    29    1
    25    29    30    1
    26    30    31    2
    27    30    32   am
    28    32    33    1
    29     7     8   ar
    30     8     9   ar
    31    13    14   ar
    32    14    15   ar
    33    15    10   ar
    34     9     1   ar
    35    23    18    1
    36     8     4   ar
    37    32    34    1
    38    33    35    1
@<TRIPOS>MOLECULE
*****
 35 38 0 0 0
SMALL
GASTEIGER

@<TRIPOS>ATOM
      1 C         141.1403  141.5274  158.5519 C.ar    1  UNL1        0.1683
      2 N         140.5538  142.4763  157.5492 N.ar    1  UNL1       -0.2101
      3 C         140.1027  143.8400  157.9815 C.ar    1  UNL1        0.1543
      4 C         140.2382  144.2547  159.4167 C.ar    1  UNL1        0.1485
      5 N         139.8837  145.5245  160.1322 N.ar    1  UNL1       -0.2194
      6 C         140.2512  145.3604  161.5772 C.ar    1  UNL1        0.1798
      7 N         140.8328  143.9892  161.7547 N.ar    1  UNL1       -0.2944
      8 C         140.8248  143.3058  160.4194 C.ar    1  UNL1        0.1672
      9 N         141.2758  141.9422  159.9870 N.ar    1  UNL1       -0.2077
     10 C         142.4937  137.4364  157.2550 C.ar    1  UNL1        0.3201
     11 N         143.5043  138.4641  157.6700 N.ar    1  UNL1       -0.1926
     12 C         143.0532  139.8278  158.1023 C.ar    1  UNL1        0.1082
     13 C         141.5914  140.1637  158.1196 C.ar    1  UNL1        0.0744
     14 C         140.5808  139.1360  157.7046 C.ar    1  UNL1        0.1082
     15 N         141.0319  137.7722  157.2723 N.ar    1  UNL1       -0.1926
     16 C         143.9747  135.9312  155.7414 C.3     1  UNL1        0.2559
     17 O         142.9448  136.0727  156.8227 O.3     1  UNL1       -0.4426
     18 N         139.5161  144.7889  156.9787 N.pl3   1  UNL1       -0.2868
     19 C         140.0134  146.2020  156.9032 C.3     1  UNL1        0.1243
     20 C         139.4269  147.1509  155.9004 C.3     1  UNL1        0.1636
     21 O         138.3431  146.6866  154.9732 O.3     1  UNL1       -0.3501
     22 C         137.8458  145.2735  155.0487 C.3     1  UNL1        0.1636
     23 C         138.4323  144.3246  156.0515 C.3     1  UNL1        0.1243
     24 C         141.3344  143.4040  163.0416 C.3     1  UNL1        0.1090
     25 C         141.3029  144.2207  164.2994 C.3     1  UNL1        0.0246
     26 C         140.1864  144.0382  165.2843 C.3     1  UNL1        0.0020
     27 C         138.8935  144.7756  165.0975 C.3     1  UNL1        0.0006
     28 C         137.6885  144.0550  164.5695 C.3     1  UNL1        0.0096
     29 C         137.7684  142.5905  164.2551 C.3     1  UNL1        0.0871
     30 C         137.5211  142.1091  162.8561 C.2     1  UNL1        0.2443
     31 O         137.5680  143.0767  161.7108 O.2     1  UNL1       -0.2730
     32 N         137.2268  140.6604  162.6024 N.am    1  UNL1       -0.1970
     33 O         136.9794  140.1791  161.2035 O.3     1  UNL1       -0.2952
     34 H         137.1960  140.0254  163.3542 H       1  UNL1        0.1822
     35 H         137.0462  140.9259  160.5881 H       1  UNL1        0.2414
@<TRIPOS>BOND
     1    16    17    1
     2    17    10    1
     3    10    11   ar
     4    11    12   ar
     5    12    13   ar
     6    13     1    1
     7     1     2   ar
     8     2     3   ar
     9     3    18    1
    10    18    19    1
    11    19    20    1
    12    20    21    1
    13    21    22    1
    14    22    23    1
    15     3     4   ar
    16     4     5   ar
    17     5     6   ar
    18     6     7   ar
    19     7    24    1
    20    24    25    1
    21    25    26    1
    22    26    27    1
    23    27    28    1
    24    28    29    1
    25    29    30    1
    26    30    31    2
    27    30    32   am
    28    32    33    1
    29     7     8   ar
    30     8     9   ar
    31    13    14   ar
    32    14    15   ar
    33    15    10   ar
    34     9     1   ar
    35    23    18    1
    36     8     4   ar
    37    32    34    1
    38    33    35    1
@<TRIPOS>MOLECULE
*****
 35 38 0 0 0
SMALL
GASTEIGER

@<TRIPOS>ATOM
      1 C         142.0364  141.0180  163.3803 C.ar    1  UNL1        0.1683
      2 N         142.6031  140.4171  162.1283 N.ar    1  UNL1       -0.2101
      3 C         142.3064  141.0403  160.7964 C.ar    1  UNL1        0.1543
      4 C         141.4430  142.2642  160.7168 C.ar    1  UNL1        0.1485
      5 N         140.9811  143.0927  159.5548 N.ar    1  UNL1       -0.2194
      6 C         140.1289  144.2056  160.0888 C.ar    1  UNL1        0.1798
      7 N         140.0641  144.0649  161.5808 N.ar    1  UNL1       -0.2944
      8 C         140.8763  142.8650  161.9689 C.ar    1  UNL1        0.1672
      9 N         141.1730  142.2419  163.3007 N.ar    1  UNL1       -0.2077
     10 C         142.9266  139.1486  167.3758 C.ar    1  UNL1        0.3201
     11 N         143.5638  138.6014  166.1330 N.ar    1  UNL1       -0.1926
     12 C         143.2671  139.2245  164.8012 C.ar    1  UNL1        0.1082
     13 C         142.3331  140.3949  164.7122 C.ar    1  UNL1        0.0744
     14 C         141.6959  140.9421  165.9549 C.ar    1  UNL1        0.1082
     15 N         141.9927  140.3190  167.2868 N.ar    1  UNL1       -0.1926
     16 C         142.5231  139.0186  169.9390 C.3     1  UNL1        0.2559
     17 O         143.2233  138.5255  168.7076 O.3     1  UNL1       -0.4426
     18 N         142.8732  140.4393  159.5443 N.pl3   1  UNL1       -0.2868
     19 C         143.9514  141.1583  158.7889 C.3     1  UNL1        0.1243
     20 C         144.5182  140.5574  157.5368 C.3     1  UNL1        0.1636
     21 O         144.0068  139.2377  157.0402 O.3     1  UNL1       -0.3501
     22 C         142.9286  138.5188  157.7956 C.3     1  UNL1        0.1636
     23 C         142.3618  139.1196  159.0477 C.3     1  UNL1        0.1243
     24 C         139.3181  144.9659  162.5198 C.3     1  UNL1        0.1090
     25 C         138.0443  144.4957  163.1572 C.3     1  UNL1        0.0246
     26 C         137.5955  143.0758  162.9776 C.3     1  UNL1        0.0020
     27 C         137.7632  142.0892  164.0949 C.3     1  UNL1        0.0006
     28 C         137.6592  140.6185  163.8189 C.3     1  UNL1        0.0096
     29 C         138.5442  139.9846  162.7869 C.3     1  UNL1        0.0871
     30 C         139.3491  138.7675  163.1345 C.2     1  UNL1        0.2443
     31 O         139.1777  138.1121  164.4728 O.2     1  UNL1       -0.2730
     32 N         140.3252  138.2058  162.1439 N.am    1  UNL1       -0.1970
     33 O         141.1301  136.9887  162.4915 O.3     1  UNL1       -0.2952
     34 H         140.4377  138.6360  161.2655 H       1  UNL1        0.1822
     35 H         140.8997  136.6934  163.3862 H       1  UNL1        0.2414
@<TRIPOS>BOND
     1    16    17    1
     2    17    10    1
     3    10    11   ar
     4    11    12   ar
     5    12    13   ar
     6    13     1    1
     7     1     2   ar
     8     2     3   ar
     9     3    18    1
    10    18    19    1
    11    19    20    1
    12    20    21    1
    13    21    22    1
    14    22    23    1
    15     3     4   ar
    16     4     5   ar
    17     5     6   ar
    18     6     7   ar
    19     7    24    1
    20    24    25    1
    21    25    26    1
    22    26    27    1
    23    27    28    1
    24    28    29    1
    25    29    30    1
    26    30    31    2
    27    30    32   am
    28    32    33    1
    29     7     8   ar
    30     8     9   ar
    31    13    14   ar
    32    14    15   ar
    33    15    10   ar
    34     9     1   ar
    35    23    18    1
    36     8     4   ar
    37    32    34    1
    38    33    35    1
@<TRIPOS>MOLECULE
*****
 35 38 0 0 0
SMALL
GASTEIGER

@<TRIPOS>ATOM
      1 C         143.0259  141.6435  159.8937 C.ar    1  UNL1        0.1683
      2 N         141.8374  140.7396  160.0362 N.ar    1  UNL1       -0.2101
      3 C         140.9043  140.9052  161.1990 C.ar    1  UNL1        0.1543
      4 C         141.1597  141.9748  162.2192 C.ar    1  UNL1        0.1485
      5 N         140.4204  142.3736  163.4618 N.ar    1  UNL1       -0.2194
      6 C         141.1520  143.5241  164.0873 C.ar    1  UNL1        0.1798
      7 N         142.3435  143.8363  163.2312 N.ar    1  UNL1       -0.2944
      8 C         142.3483  142.8787  162.0766 C.ar    1  UNL1        0.1672
      9 N         143.2813  142.7131  160.9139 N.ar    1  UNL1       -0.2077
     10 C         145.8252  141.1466  156.4055 C.ar    1  UNL1        0.3201
     11 N         144.8180  140.0795  156.7168 N.ar    1  UNL1       -0.1926
     12 C         143.8849  140.2452  157.8796 C.ar    1  UNL1        0.1082
     13 C         143.9590  141.4779  158.7309 C.ar    1  UNL1        0.0744
     14 C         144.9661  142.5449  158.4197 C.ar    1  UNL1        0.1082
     15 N         145.8993  142.3793  157.2569 N.ar    1  UNL1       -0.1926
     16 C         147.8869  141.9485  155.0432 C.3     1  UNL1        0.2559
     17 O         146.7582  140.9810  155.2428 O.3     1  UNL1       -0.4426
     18 N         139.7158  140.0012  161.3415 N.pl3   1  UNL1       -0.2868
     19 C         139.8261  138.7381  162.1430 C.3     1  UNL1        0.1243
     20 C         138.6376  137.8341  162.2855 C.3     1  UNL1        0.1636
     21 O         137.3389  138.1932  161.6265 O.3     1  UNL1       -0.3501
     22 C         137.2286  139.4563  160.8250 C.3     1  UNL1        0.1636
     23 C         138.4170  140.3603  160.6825 C.3     1  UNL1        0.1243
     24 C         143.3529  144.9163  163.4851 C.3     1  UNL1        0.1090
     25 C         144.0726  144.9763  164.7998 C.3     1  UNL1        0.0246
     26 C         144.6610  143.7293  165.3902 C.3     1  UNL1        0.0020
     27 C         145.0847  142.6031  164.4946 C.3     1  UNL1        0.0006
     28 C         144.4039  141.2701  164.5924 C.3     1  UNL1        0.0096
     29 C         144.9804  140.0797  163.8848 C.3     1  UNL1        0.0871
     30 C         144.0967  139.2056  163.0452 C.2     1  UNL1        0.2443
     31 O         142.9400  138.4855  163.6725 O.2     1  UNL1       -0.2730
     32 N         144.3696  139.0517  161.5784 N.am    1  UNL1       -0.1970
     33 O         143.4859  138.1776  160.7387 O.3     1  UNL1       -0.2952
     34 H         145.1288  139.5243  161.1667 H       1  UNL1        0.1822
     35 H         142.7921  137.7899  161.2949 H       1  UNL1        0.2414
@<TRIPOS>BOND
     1    16    17    1
     2    17    10    1
     3    10    11   ar
     4    11    12   ar
     5    12    13   ar
     6    13     1    1
     7     1     2   ar
     8     2     3   ar
     9     3    18    1
    10    18    19    1
    11    19    20    1
    12    20    21    1
    13    21    22    1
    14    22    23    1
    15     3     4   ar
    16     4     5   ar
    17     5     6   ar
    18     6     7   ar
    19     7    24    1
    20    24    25    1
    21    25    26    1
    22    26    27    1
    23    27    28    1
    24    28    29    1
    25    29    30    1
    26    30    31    2
    27    30    32   am
    28    32    33    1
    29     7     8   ar
    30     8     9   ar
    31    13    14   ar
    32    14    15   ar
    33    15    10   ar
    34     9     1   ar
    35    23    18    1
    36     8     4   ar
    37    32    34    1
    38    33    35    1
@<TRIPOS>MOLECULE
*****
 35 38 0 0 0
SMALL
GASTEIGER

@<TRIPOS>ATOM
      1 C         141.5576  141.7353  158.2824 C.ar    1  UNL1        0.1683
      2 N         140.8548  142.6531  157.3267 N.ar    1  UNL1       -0.2101
      3 C         140.2958  143.9574  157.8131 C.ar    1  UNL1        0.1543
      4 C         140.4398  144.3437  159.2553 C.ar    1  UNL1        0.1485
      5 N         139.9948  145.5556  160.0190 N.ar    1  UNL1       -0.2194
      6 C         140.4227  145.3867  161.4467 C.ar    1  UNL1        0.1798
      7 N         141.1321  144.0705  161.5654 N.ar    1  UNL1       -0.2944
      8 C         141.1427  143.4258  160.2111 C.ar    1  UNL1        0.1672
      9 N         141.7016  142.1216  159.7246 N.ar    1  UNL1       -0.2077
     10 C         143.2344  137.8226  156.8231 C.ar    1  UNL1        0.3201
     11 N         144.0425  139.0797  156.6938 N.ar    1  UNL1       -0.1926
     12 C         143.4835  140.3839  157.1802 C.ar    1  UNL1        0.1082
     13 C         142.1165  140.4310  157.7960 C.ar    1  UNL1        0.0744
     14 C         141.3085  139.1739  157.9253 C.ar    1  UNL1        0.1082
     15 N         141.8675  137.8696  157.4388 N.ar    1  UNL1       -0.1926
     16 C         143.2026  135.2247  156.8136 C.3     1  UNL1        0.2559
     17 O         143.7934  136.5184  156.3367 O.3     1  UNL1       -0.4426
     18 N         139.5929  144.8752  156.8573 N.pl3   1  UNL1       -0.2868
     19 C         138.5199  144.3404  155.9558 C.3     1  UNL1        0.1243
     20 C         137.8170  145.2581  155.0000 C.3     1  UNL1        0.1636
     21 O         138.1871  146.7107  154.9457 O.3     1  UNL1       -0.3501
     22 C         139.2601  147.2455  155.8471 C.3     1  UNL1        0.1636
     23 C         139.9631  146.3278  156.8029 C.3     1  UNL1        0.1243
     24 C         141.7266  143.4992  162.8185 C.3     1  UNL1        0.1090
     25 C         142.1469  144.4112  163.9328 C.3     1  UNL1        0.0246
     26 C         143.5953  144.7566  164.1132 C.3     1  UNL1        0.0020
     27 C         144.4512  143.9417  165.0370 C.3     1  UNL1        0.0006
     28 C         144.5794  142.4616  164.8306 C.3     1  UNL1        0.0096
     29 C         145.5433  141.9269  163.8131 C.3     1  UNL1        0.0871
     30 C         145.0921  141.6956  162.4014 C.2     1  UNL1        0.2443
     31 O         144.6159  140.3373  161.9793 O.2     1  UNL1       -0.2730
     32 N         145.1171  142.8226  161.4119 N.am    1  UNL1       -0.1970
     33 O         144.6659  142.5913  160.0002 O.3     1  UNL1       -0.2952
     34 H         145.4296  143.7141  161.6890 H       1  UNL1        0.1822
     35 H         144.3922  141.6666  159.8957 H       1  UNL1        0.2414
@<TRIPOS>BOND
     1    16    17    1
     2    17    10    1
     3    10    11   ar
     4    11    12   ar
     5    12    13   ar
     6    13     1    1
     7     1     2   ar
     8     2     3   ar
     9     3    18    1
    10    18    19    1
    11    19    20    1
    12    20    21    1
    13    21    22    1
    14    22    23    1
    15     3     4   ar
    16     4     5   ar
    17     5     6   ar
    18     6     7   ar
    19     7    24    1
    20    24    25    1
    21    25    26    1
    22    26    27    1
    23    27    28    1
    24    28    29    1
    25    29    30    1
    26    30    31    2
    27    30    32   am
    28    32    33    1
    29     7     8   ar
    30     8     9   ar
    31    13    14   ar
    32    14    15   ar
    33    15    10   ar
    34     9     1   ar
    35    23    18    1
    36     8     4   ar
    37    32    34    1
    38    33    35    1
@<TRIPOS>MOLECULE
*****
 35 38 0 0 0
SMALL
GASTEIGER

@<TRIPOS>ATOM
      1 C         141.2865  142.6401  163.9748 C.ar    1  UNL1        0.1683
      2 N         141.3160  143.0820  165.4078 N.ar    1  UNL1       -0.2101
      3 C         141.7055  142.1123  166.4840 C.ar    1  UNL1        0.1543
      4 C         142.0655  140.7006  166.1269 C.ar    1  UNL1        0.1485
      5 N         142.4861  139.5296  166.9646 N.ar    1  UNL1       -0.2194
      6 C         142.7166  138.3639  166.0492 C.ar    1  UNL1        0.1798
      7 N         142.4384  138.8145  164.6458 N.ar    1  UNL1       -0.2944
      8 C         142.0360  140.2587  164.6938 C.ar    1  UNL1        0.1672
      9 N         141.6465  141.2284  163.6177 N.ar    1  UNL1       -0.2077
     10 C         140.1180  145.5492  160.7465 C.ar    1  UNL1        0.3201
     11 N         139.2187  145.3396  161.9286 N.ar    1  UNL1       -0.1926
     12 C         139.6083  144.3699  163.0047 C.ar    1  UNL1        0.1082
     13 C         140.8971  143.6098  162.8986 C.ar    1  UNL1        0.0744
     14 C         141.7963  143.8195  161.7166 C.ar    1  UNL1        0.1082
     15 N         141.4069  144.7892  160.6405 N.ar    1  UNL1       -0.1926
     16 C         140.0198  146.2016  158.2336 C.3     1  UNL1        0.2559
     17 O         139.7285  146.5190  159.6704 O.3     1  UNL1       -0.4426
     18 N         141.7349  142.5544  167.9171 N.pl3   1  UNL1       -0.2868
     19 C         142.9965  142.4207  168.7174 C.3     1  UNL1        0.1243
     20 C         143.0260  142.8627  170.1505 C.3     1  UNL1        0.1636
     21 O         141.7939  143.4383  170.7832 O.3     1  UNL1       -0.3501
     22 C         140.5323  143.5720  169.9829 C.3     1  UNL1        0.1636
     23 C         140.5028  143.1300  168.5498 C.3     1  UNL1        0.1243
     24 C         142.5442  137.9692  163.4111 C.3     1  UNL1        0.1090
     25 C         141.4264  137.0403  163.0401 C.3     1  UNL1        0.0246
     26 C         140.0014  137.4659  163.2358 C.3     1  UNL1        0.0020
     27 C         139.1475  137.7963  162.0477 C.3     1  UNL1        0.0006
     28 C         138.0311  138.7895  162.1793 C.3     1  UNL1        0.0096
     29 C         137.5905  139.5851  160.9864 C.3     1  UNL1        0.0871
     30 C         137.8043  141.0695  160.9543 C.2     1  UNL1        0.2443
     31 O         137.3488  141.9178  162.1045 O.2     1  UNL1       -0.2730
     32 N         138.4734  141.7054  159.7722 N.am    1  UNL1       -0.1970
     33 O         138.6872  143.1898  159.7401 O.3     1  UNL1       -0.2952
     34 H         138.7724  141.1486  159.0173 H       1  UNL1        0.1822
     35 H         138.3373  143.5845  160.5542 H       1  UNL1        0.2414
@<TRIPOS>BOND
     1    16    17    1
     2    17    10    1
     3    10    11   ar
     4    11    12   ar
     5    12    13   ar
     6    13     1    1
     7     1     2   ar
     8     2     3   ar
     9     3    18    1
    10    18    19    1
    11    19    20    1
    12    20    21    1
    13    21    22    1
    14    22    23    1
    15     3     4   ar
    16     4     5   ar
    17     5     6   ar
    18     6     7   ar
    19     7    24    1
    20    24    25    1
    21    25    26    1
    22    26    27    1
    23    27    28    1
    24    28    29    1
    25    29    30    1
    26    30    31    2
    27    30    32   am
    28    32    33    1
    29     7     8   ar
    30     8     9   ar
    31    13    14   ar
    32    14    15   ar
    33    15    10   ar
    34     9     1   ar
    35    23    18    1
    36     8     4   ar
    37    32    34    1
    38    33    35    1
@<TRIPOS>MOLECULE
*****
 35 38 0 0 0
SMALL
GASTEIGER

@<TRIPOS>ATOM
      1 C         141.6487  138.6456  160.5870 C.ar    1  UNL1        0.1683
      2 N         141.6797  137.6714  159.4469 N.ar    1  UNL1       -0.2101
      3 C         142.4722  137.9860  158.2128 C.ar    1  UNL1        0.1543
      4 C         143.2337  139.2749  158.1189 C.ar    1  UNL1        0.1485
      5 N         144.0965  139.8544  157.0374 N.ar    1  UNL1       -0.2194
      6 C         144.5988  141.1867  157.5091 C.ar    1  UNL1        0.1798
      7 N         144.0464  141.4307  158.8822 N.ar    1  UNL1       -0.2944
      8 C         143.2027  140.2492  159.2590 C.ar    1  UNL1        0.1672
      9 N         142.4101  139.9345  160.4931 N.ar    1  UNL1       -0.2077
     10 C         139.2713  137.7017  164.2893 C.ar    1  UNL1        0.3201
     11 N         140.7400  137.4002  164.2439 N.ar    1  UNL1       -0.1926
     12 C         141.5324  137.7148  163.0098 C.ar    1  UNL1        0.1082
     13 C         140.8561  138.3309  161.8211 C.ar    1  UNL1        0.0744
     14 C         139.3875  138.6324  161.8665 C.ar    1  UNL1        0.1082
     15 N         138.5950  138.3178  163.1007 N.ar    1  UNL1       -0.1926
     16 C         138.0296  138.4952  166.4291 C.3     1  UNL1        0.2559
     17 O         138.4788  137.3870  165.5235 O.3     1  UNL1       -0.4426
     18 N         142.5031  137.0117  157.0727 N.pl3   1  UNL1       -0.2868
     19 C         143.2183  135.7020  157.2247 C.3     1  UNL1        0.1243
     20 C         143.2493  134.7276  156.0846 C.3     1  UNL1        0.1636
     21 O         142.5652  135.0631  154.7926 O.3     1  UNL1       -0.3501
     22 C         141.8500  136.3729  154.6406 C.3     1  UNL1        0.1636
     23 C         141.8190  137.3472  155.7807 C.3     1  UNL1        0.1243
     24 C         144.2942  142.6434  159.7295 C.3     1  UNL1        0.1090
     25 C         144.7951  142.4869  161.1347 C.3     1  UNL1        0.0246
     26 C         143.9714  142.9860  162.2846 C.3     1  UNL1        0.0020
     27 C         144.2632  144.3270  162.8900 C.3     1  UNL1        0.0006
     28 C         143.1862  145.0686  163.6249 C.3     1  UNL1        0.0096
     29 C         141.7435  144.7719  163.3410 C.3     1  UNL1        0.0871
     30 C         141.0738  145.3812  162.1450 C.2     1  UNL1        0.2443
     31 O         141.5932  145.0943  160.7674 O.2     1  UNL1       -0.2730
     32 N         139.8848  146.2773  162.3267 N.am    1  UNL1       -0.1970
     33 O         139.2151  146.8865  161.1307 O.3     1  UNL1       -0.2952
     34 H         139.5439  146.4655  163.2309 H       1  UNL1        0.1822
     35 H         139.6721  146.6014  160.3241 H       1  UNL1        0.2414
@<TRIPOS>BOND
     1    16    17    1
     2    17    10    1
     3    10    11   ar
     4    11    12   ar
     5    12    13   ar
     6    13     1    1
     7     1     2   ar
     8     2     3   ar
     9     3    18    1
    10    18    19    1
    11    19    20    1
    12    20    21    1
    13    21    22    1
    14    22    23    1
    15     3     4   ar
    16     4     5   ar
    17     5     6   ar
    18     6     7   ar
    19     7    24    1
    20    24    25    1
    21    25    26    1
    22    26    27    1
    23    27    28    1
    24    28    29    1
    25    29    30    1
    26    30    31    2
    27    30    32   am
    28    32    33    1
    29     7     8   ar
    30     8     9   ar
    31    13    14   ar
    32    14    15   ar
    33    15    10   ar
    34     9     1   ar
    35    23    18    1
    36     8     4   ar
    37    32    34    1
    38    33    35    1
