@<TRIPOS>MOLECULE
*****
 28 31 0 0 0
SMALL
GASTEIGER

@<TRIPOS>ATOM
      1 N         138.9579  139.0184  164.4429 N.3     1  UNL1       -0.2712
      2 C         138.7714  140.4902  164.2214 C.3     1  UNL1        0.0739
      3 C         139.1028  141.1972  165.5022 C.3     1  UNL1        0.0389
      4 C         139.4940  140.1625  166.5151 C.3     1  UNL1        0.0971
      5 C         139.4045  138.8158  165.8605 C.3     1  UNL1        0.0925
      6 N         139.9030  140.4277  167.9337 N.am    1  UNL1       -0.2589
      7 C         139.1350  140.0348  169.1609 C.2     1  UNL1        0.2338
      8 O         137.8232  139.3077  169.1849 O.2     1  UNL1       -0.2742
      9 C         139.9091  140.4967  170.3598 C.3     1  UNL1        0.1131
     10 C         141.1555  141.1751  169.8736 C.ar    1  UNL1        0.0007
     11 C         142.2934  141.8261  170.6025 C.ar    1  UNL1       -0.0026
     12 C         143.4275  142.4345  169.8320 C.ar    1  UNL1       -0.0002
     13 C         143.4237  142.3918  168.3326 C.ar    1  UNL1        0.0013
     14 C         142.2858  141.7408  167.6037 C.ar    1  UNL1        0.0146
     15 C         141.1517  141.1324  168.3742 C.ar    1  UNL1        0.0503
     16 C         138.7367  137.9386  163.4254 C.3     1  UNL1        0.0722
     17 C         143.1157  138.2878  159.7452 C.2     1  UNL1        0.4049
     18 O         144.4196  138.1375  160.4715 O.2     1  UNL1       -0.2262
     19 N         141.8233  138.2303  160.5045 N.am    1  UNL1       -0.2460
     20 C         141.8348  138.0226  161.9900 C.3     1  UNL1        0.0968
     21 C         140.5424  137.9652  162.7492 C.3     1  UNL1        0.0230
     22 C         139.2386  138.1154  162.0229 C.3     1  UNL1        0.0180
     23 C         137.7604  138.2042  161.7838 C.3     1  UNL1        0.0015
     24 C         139.2271  138.3231  160.5374 C.3     1  UNL1        0.0230
     25 C         140.5195  138.3805  159.7782 C.3     1  UNL1        0.0968
     26 O         143.1043  138.4954  158.2597 O.3     1  UNL1       -0.4345
     27 C         143.5458  137.1454  156.0843 C.3     1  UNL1        0.0513
     28 C         142.7620  137.3564  157.3458 C.3     1  UNL1        0.2102
@<TRIPOS>BOND
     1    27    28    1
     2    28    26    1
     3    26    17    1
     4    17    18    2
     5    17    19   am
     6    19    20    1
     7    20    21    1
     8    21    22    1
     9    22    23    1
    10    22    16    1
    11    16     1    1
    12     1     2    1
    13     2     3    1
    14     3     4    1
    15     4     6    1
    16     6     7   am
    17     7     8    2
    18     7     9    1
    19     9    10    1
    20    10    11   ar
    21    11    12   ar
    22    12    13   ar
    23    13    14   ar
    24    14    15   ar
    25     4     5    1
    26    22    24    1
    27    24    25    1
    28    25    19    1
    29     5     1    1
    30    15     6    1
    31    15    10   ar
@<TRIPOS>MOLECULE
*****
 28 31 0 0 0
SMALL
GASTEIGER

@<TRIPOS>ATOM
      1 N         140.9813  144.3879  164.0190 N.3     1  UNL1       -0.2712
      2 C         139.5390  144.7652  164.1847 C.3     1  UNL1        0.0739
      3 C         138.9251  143.8243  165.1786 C.3     1  UNL1        0.0389
      4 C         139.9878  142.8656  165.6272 C.3     1  UNL1        0.0971
      5 C         141.2587  143.2138  164.9105 C.3     1  UNL1        0.0925
      6 N         139.8108  141.7537  166.6183 N.am    1  UNL1       -0.2589
      7 C         139.2242  140.4031  166.3328 C.2     1  UNL1        0.2338
      8 O         138.7114  139.9271  165.0059 O.2     1  UNL1       -0.2742
      9 C         139.2403  139.6119  167.6071 C.3     1  UNL1        0.1131
     10 C         139.8369  140.4736  168.6802 C.ar    1  UNL1        0.0007
     11 C         140.1046  140.2239  170.1348 C.ar    1  UNL1       -0.0026
     12 C         140.7249  141.2980  170.9783 C.ar    1  UNL1       -0.0002
     13 C         141.0776  142.6217  170.3672 C.ar    1  UNL1        0.0013
     14 C         140.8099  142.8714  168.9126 C.ar    1  UNL1        0.0146
     15 C         140.1895  141.7973  168.0691 C.ar    1  UNL1        0.0503
     16 C         141.9723  145.0656  163.1197 C.3     1  UNL1        0.0722
     17 C         143.1879  141.6444  158.6858 C.2     1  UNL1        0.4049
     18 O         141.9611  141.4149  157.8536 O.2     1  UNL1       -0.2262
     19 N         143.1141  142.5126  159.9069 N.am    1  UNL1       -0.2460
     20 C         141.8137  143.1511  160.2957 C.3     1  UNL1        0.0968
     21 C         141.7400  144.0192  161.5167 C.3     1  UNL1        0.0230
     22 C         142.9666  144.2488  162.3489 C.3     1  UNL1        0.0180
     23 C         143.8479  144.7621  163.4488 C.3     1  UNL1        0.0015
     24 C         144.2671  143.6103  161.9600 C.3     1  UNL1        0.0230
     25 C         144.3408  142.7422  160.7390 C.3     1  UNL1        0.0968
     26 O         144.4883  141.0059  158.2969 O.3     1  UNL1       -0.4345
     27 C         146.3144  142.5072  157.2195 C.3     1  UNL1        0.0513
     28 C         145.2252  141.4851  157.0816 C.3     1  UNL1        0.2102
@<TRIPOS>BOND
     1    27    28    1
     2    28    26    1
     3    26    17    1
     4    17    18    2
     5    17    19   am
     6    19    20    1
     7    20    21    1
     8    21    22    1
     9    22    23    1
    10    22    16    1
    11    16     1    1
    12     1     2    1
    13     2     3    1
    14     3     4    1
    15     4     6    1
    16     6     7   am
    17     7     8    2
    18     7     9    1
    19     9    10    1
    20    10    11   ar
    21    11    12   ar
    22    12    13   ar
    23    13    14   ar
    24    14    15   ar
    25     4     5    1
    26    22    24    1
    27    24    25    1
    28    25    19    1
    29     5     1    1
    30    15     6    1
    31    15    10   ar
@<TRIPOS>MOLECULE
*****
 28 31 0 0 0
SMALL
GASTEIGER

@<TRIPOS>ATOM
      1 N         138.3870  141.5282  163.6855 N.3     1  UNL1       -0.2712
      2 C         137.8658  140.1217  163.7059 C.3     1  UNL1        0.0739
      3 C         138.7459  139.3146  164.6137 C.3     1  UNL1        0.0389
      4 C         139.8108  140.2220  165.1543 C.3     1  UNL1        0.0971
      5 C         139.5890  141.5901  164.5807 C.3     1  UNL1        0.0925
      6 N         140.9054  139.8302  166.1021 N.am    1  UNL1       -0.2589
      7 C         142.2542  139.2970  165.7194 C.2     1  UNL1        0.2338
      8 O         142.7452  139.0620  164.3217 O.2     1  UNL1       -0.2742
      9 C         143.0257  139.0402  166.9799 C.3     1  UNL1        0.1131
     10 C         142.1537  139.4146  168.1416 C.ar    1  UNL1        0.0007
     11 C         142.3837  139.3739  169.6233 C.ar    1  UNL1       -0.0026
     12 C         141.3032  139.8216  170.5625 C.ar    1  UNL1       -0.0002
     13 C         139.9928  140.3099  170.0200 C.ar    1  UNL1        0.0013
     14 C         139.7628  140.3505  168.5383 C.ar    1  UNL1        0.0146
     15 C         140.8433  139.9029  167.5991 C.ar    1  UNL1        0.0503
     16 C         137.8077  142.6719  162.9067 C.3     1  UNL1        0.0722
     17 C         141.5281  144.0567  158.7735 C.2     1  UNL1        0.4049
     18 O         141.7405  142.8919  157.8525 O.2     1  UNL1       -0.2262
     19 N         140.5907  143.9309  159.9378 N.am    1  UNL1       -0.2460
     20 C         139.8658  142.6404  160.1811 C.3     1  UNL1        0.0968
     21 C         138.9285  142.5147  161.3453 C.3     1  UNL1        0.0230
     22 C         138.7160  143.6794  162.2663 C.3     1  UNL1        0.0180
     23 C         138.1880  144.4942  163.4097 C.3     1  UNL1        0.0015
     24 C         139.4408  144.9699  162.0230 C.3     1  UNL1        0.0230
     25 C         140.3781  145.0956  160.8588 C.3     1  UNL1        0.0968
     26 O         142.2529  145.3472  158.5301 O.3     1  UNL1       -0.4345
     27 C         140.7696  146.1988  156.5746 C.3     1  UNL1        0.0513
     28 C         142.1202  146.0443  157.2087 C.3     1  UNL1        0.2102
@<TRIPOS>BOND
     1    27    28    1
     2    28    26    1
     3    26    17    1
     4    17    18    2
     5    17    19   am
     6    19    20    1
     7    20    21    1
     8    21    22    1
     9    22    23    1
    10    22    16    1
    11    16     1    1
    12     1     2    1
    13     2     3    1
    14     3     4    1
    15     4     6    1
    16     6     7   am
    17     7     8    2
    18     7     9    1
    19     9    10    1
    20    10    11   ar
    21    11    12   ar
    22    12    13   ar
    23    13    14   ar
    24    14    15   ar
    25     4     5    1
    26    22    24    1
    27    24    25    1
    28    25    19    1
    29     5     1    1
    30    15     6    1
    31    15    10   ar
@<TRIPOS>MOLECULE
*****
 28 31 0 0 0
SMALL
GASTEIGER

@<TRIPOS>ATOM
      1 N         138.9291  139.2410  162.4379 N.3     1  UNL1       -0.2712
      2 C         138.8451  137.8234  162.9210 C.3     1  UNL1        0.0739
      3 C         139.0986  137.8219  164.3995 C.3     1  UNL1        0.0389
      4 C         139.3392  139.2384  164.8300 C.3     1  UNL1        0.0971
      5 C         139.2344  140.1155  163.6177 C.3     1  UNL1        0.0925
      6 N         139.6330  139.6974  166.2275 N.am    1  UNL1       -0.2589
      7 C         138.8072  139.4021  167.4444 C.2     1  UNL1        0.2338
      8 O         137.5427  138.5960  167.4775 O.2     1  UNL1       -0.2742
      9 C         139.4681  140.0545  168.6224 C.3     1  UNL1        0.1131
     10 C         140.7023  140.7530  168.1336 C.ar    1  UNL1        0.0007
     11 C         141.7464  141.5614  168.8450 C.ar    1  UNL1       -0.0026
     12 C         142.8925  142.1491  168.0762 C.ar    1  UNL1       -0.0002
     13 C         142.9944  141.9284  166.5961 C.ar    1  UNL1        0.0013
     14 C         141.9503  141.1200  165.8846 C.ar    1  UNL1        0.0146
     15 C         140.8042  140.5323  166.6534 C.ar    1  UNL1        0.0503
     16 C         138.7407  139.7029  161.0232 C.3     1  UNL1        0.0722
     17 C         140.5077  145.0499  159.9605 C.2     1  UNL1        0.4049
     18 O         139.5638  146.0417  160.5733 O.2     1  UNL1       -0.2262
     19 N         140.2499  143.5795  160.1074 N.am    1  UNL1       -0.2460
     20 C         139.0483  143.1010  160.8671 C.3     1  UNL1        0.0968
     21 C         138.7906  141.6306  161.0140 C.3     1  UNL1        0.0230
     22 C         139.7344  140.6389  160.4013 C.3     1  UNL1        0.0180
     23 C         140.3331  139.3220  160.0045 C.3     1  UNL1        0.0015
     24 C         140.9360  141.1174  159.6415 C.3     1  UNL1        0.0230
     25 C         141.1937  142.5877  159.4946 C.3     1  UNL1        0.0968
     26 O         141.7092  145.5285  159.2008 O.3     1  UNL1       -0.4345
     27 C         140.3289  146.2341  157.1159 C.3     1  UNL1        0.0513
     28 C         141.6174  145.7624  157.7220 C.3     1  UNL1        0.2102
@<TRIPOS>BOND
     1    27    28    1
     2    28    26    1
     3    26    17    1
     4    17    18    2
     5    17    19   am
     6    19    20    1
     7    20    21    1
     8    21    22    1
     9    22    23    1
    10    22    16    1
    11    16     1    1
    12     1     2    1
    13     2     3    1
    14     3     4    1
    15     4     6    1
    16     6     7   am
    17     7     8    2
    18     7     9    1
    19     9    10    1
    20    10    11   ar
    21    11    12   ar
    22    12    13   ar
    23    13    14   ar
    24    14    15   ar
    25     4     5    1
    26    22    24    1
    27    24    25    1
    28    25    19    1
    29     5     1    1
    30    15     6    1
    31    15    10   ar
@<TRIPOS>MOLECULE
*****
 28 31 0 0 0
SMALL
GASTEIGER

@<TRIPOS>ATOM
      1 N         143.1360  138.2222  157.8456 N.3     1  UNL1       -0.2712
      2 C         143.5992  138.4724  156.4410 C.3     1  UNL1        0.0739
      3 C         143.4529  137.1940  155.6701 C.3     1  UNL1        0.0389
      4 C         142.8994  136.1537  156.5982 C.3     1  UNL1        0.0971
      5 C         142.7035  136.7892  157.9427 C.3     1  UNL1        0.0925
      6 N         142.5950  134.7283  156.2439 N.am    1  UNL1       -0.2589
      7 C         141.5061  134.2616  155.3239 C.2     1  UNL1        0.2338
      8 O         140.5302  135.1384  154.5967 O.2     1  UNL1       -0.2742
      9 C         141.5644  132.7642  155.2589 C.3     1  UNL1        0.1131
     10 C         142.6893  132.3054  156.1387 C.ar    1  UNL1        0.0007
     11 C         143.2159  130.9391  156.4642 C.ar    1  UNL1       -0.0026
     12 C         144.3795  130.7867  157.3984 C.ar    1  UNL1       -0.0002
     13 C         145.0165  132.0007  158.0071 C.ar    1  UNL1        0.0013
     14 C         144.4899  133.3669  157.6817 C.ar    1  UNL1        0.0146
     15 C         143.3263  133.5193  156.7475 C.ar    1  UNL1        0.0503
     16 C         143.1099  139.2283  158.9579 C.3     1  UNL1        0.0722
     17 C         138.8165  137.9776  162.5418 C.2     1  UNL1        0.4049
     18 O         137.4985  138.0893  161.8344 O.2     1  UNL1       -0.2262
     19 N         140.0908  138.2599  161.8024 N.am    1  UNL1       -0.2460
     20 C         140.0470  138.6538  160.3557 C.3     1  UNL1        0.0968
     21 C         141.3212  138.9361  159.6164 C.3     1  UNL1        0.0230
     22 C         142.6392  138.8244  160.3237 C.3     1  UNL1        0.0180
     23 C         144.1207  138.8530  160.5567 C.3     1  UNL1        0.0015
     24 C         142.6830  138.4305  161.7704 C.3     1  UNL1        0.0230
     25 C         141.4088  138.1482  162.5097 C.3     1  UNL1        0.0968
     26 O         138.8603  137.5837  163.9885 O.3     1  UNL1       -0.4345
     27 C         138.3587  140.0383  164.6762 C.3     1  UNL1        0.0513
     28 C         138.5772  138.6027  165.0521 C.3     1  UNL1        0.2102
@<TRIPOS>BOND
     1    27    28    1
     2    28    26    1
     3    26    17    1
     4    17    18    2
     5    17    19   am
     6    19    20    1
     7    20    21    1
     8    21    22    1
     9    22    23    1
    10    22    16    1
    11    16     1    1
    12     1     2    1
    13     2     3    1
    14     3     4    1
    15     4     6    1
    16     6     7   am
    17     7     8    2
    18     7     9    1
    19     9    10    1
    20    10    11   ar
    21    11    12   ar
    22    12    13   ar
    23    13    14   ar
    24    14    15   ar
    25     4     5    1
    26    22    24    1
    27    24    25    1
    28    25    19    1
    29     5     1    1
    30    15     6    1
    31    15    10   ar
@<TRIPOS>MOLECULE
*****
 28 31 0 0 0
SMALL
GASTEIGER

@<TRIPOS>ATOM
      1 N         138.8720  140.2019  163.4566 N.3     1  UNL1       -0.2712
      2 C         137.9352  141.3338  163.7587 C.3     1  UNL1        0.0739
      3 C         137.7758  142.1493  162.5099 C.3     1  UNL1        0.0389
      4 C         138.6140  141.5215  161.4360 C.3     1  UNL1        0.0971
      5 C         139.2915  140.3179  162.0211 C.3     1  UNL1        0.0925
      6 N         138.7507  142.0113  160.0248 N.am    1  UNL1       -0.2589
      7 C         138.2193  141.3288  158.7994 C.2     1  UNL1        0.2338
      8 O         137.4579  140.0368  158.7699 O.2     1  UNL1       -0.2742
      9 C         138.5831  142.1653  157.6085 C.3     1  UNL1        0.1131
     10 C         139.3393  143.3647  158.0981 C.ar    1  UNL1        0.0007
     11 C         139.9469  144.5312  157.3769 C.ar    1  UNL1       -0.0026
     12 C         140.6581  145.6025  158.1492 C.ar    1  UNL1       -0.0002
     13 C         140.7617  145.5073  159.6425 C.ar    1  UNL1        0.0013
     14 C         140.1541  144.3408  160.3637 C.ar    1  UNL1        0.0146
     15 C         139.4429  143.2695  159.5914 C.ar    1  UNL1        0.0503
     16 C         139.3121  139.1403  164.4207 C.3     1  UNL1        0.0722
     17 C         139.2031  140.0810  170.0727 C.2     1  UNL1        0.4049
     18 O         137.8227  139.8500  170.6125 O.2     1  UNL1       -0.2262
     19 N         139.4771  139.8950  168.6097 N.am    1  UNL1       -0.2460
     20 C         138.3707  139.4781  167.6865 C.3     1  UNL1        0.0968
     21 C         138.6448  139.2922  166.2235 C.3     1  UNL1        0.0230
     22 C         140.0250  139.5231  165.6837 C.3     1  UNL1        0.0180
     23 C         141.1577  139.6211  164.7053 C.3     1  UNL1        0.0015
     24 C         141.1314  139.9400  166.6069 C.3     1  UNL1        0.0230
     25 C         140.8573  140.1259  168.0699 C.3     1  UNL1        0.0968
     26 O         140.3093  140.4978  170.9959 O.3     1  UNL1       -0.4345
     27 C         139.8326  142.9971  170.4707 C.3     1  UNL1        0.0513
     28 C         140.6966  141.9433  171.0977 C.3     1  UNL1        0.2102
@<TRIPOS>BOND
     1    27    28    1
     2    28    26    1
     3    26    17    1
     4    17    18    2
     5    17    19   am
     6    19    20    1
     7    20    21    1
     8    21    22    1
     9    22    23    1
    10    22    16    1
    11    16     1    1
    12     1     2    1
    13     2     3    1
    14     3     4    1
    15     4     6    1
    16     6     7   am
    17     7     8    2
    18     7     9    1
    19     9    10    1
    20    10    11   ar
    21    11    12   ar
    22    12    13   ar
    23    13    14   ar
    24    14    15   ar
    25     4     5    1
    26    22    24    1
    27    24    25    1
    28    25    19    1
    29     5     1    1
    30    15     6    1
    31    15    10   ar
@<TRIPOS>MOLECULE
*****
 28 31 0 0 0
SMALL
GASTEIGER

@<TRIPOS>ATOM
      1 N         140.5431  138.9665  163.8170 N.3     1  UNL1       -0.2712
      2 C         141.8320  138.3898  164.3233 C.3     1  UNL1        0.0739
      3 C         141.9591  138.7433  165.7755 C.3     1  UNL1        0.0389
      4 C         140.7489  139.5384  166.1667 C.3     1  UNL1        0.0971
      5 C         139.8738  139.6764  164.9563 C.3     1  UNL1        0.0925
      6 N         140.4639  140.0974  167.5292 N.am    1  UNL1       -0.2589
      7 C         139.2334  139.8409  168.3477 C.2     1  UNL1        0.2338
      8 O         138.0718  138.9802  167.9475 O.2     1  UNL1       -0.2742
      9 C         139.3683  140.5961  169.6366 C.3     1  UNL1        0.1131
     10 C         140.6822  141.3194  169.6148 C.ar    1  UNL1        0.0007
     11 C         141.3496  142.2188  170.6126 C.ar    1  UNL1       -0.0026
     12 C         142.6940  142.8100  170.3079 C.ar    1  UNL1       -0.0002
     13 C         143.3711  142.5019  169.0054 C.ar    1  UNL1        0.0013
     14 C         142.7038  141.6024  168.0075 C.ar    1  UNL1        0.0146
     15 C         141.3593  141.0112  168.3122 C.ar    1  UNL1        0.0503
     16 C         140.0161  138.8532  162.4172 C.3     1  UNL1        0.0722
     17 C         140.9156  144.0046  160.0727 C.2     1  UNL1        0.4049
     18 O         142.3642  144.3791  160.1788 O.2     1  UNL1       -0.2262
     19 N         140.4383  142.6922  160.6204 N.am    1  UNL1       -0.2460
     20 C         141.4096  141.7545  161.2741 C.3     1  UNL1        0.0968
     21 C         140.9322  140.4422  161.8217 C.3     1  UNL1        0.0230
     22 C         139.4837  140.0675  161.7157 C.3     1  UNL1        0.0180
     23 C         138.2200  139.2711  161.8533 C.3     1  UNL1        0.0015
     24 C         138.5124  141.0052  161.0620 C.3     1  UNL1        0.0230
     25 C         138.9897  142.3175  160.5143 C.3     1  UNL1        0.0968
     26 O         139.9444  144.9423  159.4190 O.3     1  UNL1       -0.4345
     27 C         140.3944  146.2336  157.2100 C.3     1  UNL1        0.0513
     28 C         139.8703  145.0224  157.9230 C.3     1  UNL1        0.2102
@<TRIPOS>BOND
     1    27    28    1
     2    28    26    1
     3    26    17    1
     4    17    18    2
     5    17    19   am
     6    19    20    1
     7    20    21    1
     8    21    22    1
     9    22    23    1
    10    22    16    1
    11    16     1    1
    12     1     2    1
    13     2     3    1
    14     3     4    1
    15     4     6    1
    16     6     7   am
    17     7     8    2
    18     7     9    1
    19     9    10    1
    20    10    11   ar
    21    11    12   ar
    22    12    13   ar
    23    13    14   ar
    24    14    15   ar
    25     4     5    1
    26    22    24    1
    27    24    25    1
    28    25    19    1
    29     5     1    1
    30    15     6    1
    31    15    10   ar
@<TRIPOS>MOLECULE
*****
 28 31 0 0 0
SMALL
GASTEIGER

@<TRIPOS>ATOM
      1 N         138.7657  144.2897  162.4345 N.3     1  UNL1       -0.2712
      2 C         139.1180  145.7471  162.3898 C.3     1  UNL1        0.0739
      3 C         140.1025  145.9519  161.2768 C.3     1  UNL1        0.0389
      4 C         140.3587  144.6212  160.6337 C.3     1  UNL1        0.0971
      5 C         139.5324  143.5939  161.3491 C.3     1  UNL1        0.0925
      6 N         141.2794  144.3631  159.4779 N.am    1  UNL1       -0.2589
      7 C         142.4955  143.4853  159.4985 C.2     1  UNL1        0.2338
      8 O         143.0046  142.7116  160.6784 O.2     1  UNL1       -0.2742
      9 C         143.1133  143.5172  158.1320 C.3     1  UNL1        0.1131
     10 C         142.2789  144.4147  157.2669 C.ar    1  UNL1        0.0007
     11 C         142.4048  144.8233  155.8292 C.ar    1  UNL1       -0.0026
     12 C         141.3973  145.7548  155.2233 C.ar    1  UNL1       -0.0002
     13 C         140.2638  146.2776  156.0551 C.ar    1  UNL1        0.0013
     14 C         140.1379  145.8690  157.4928 C.ar    1  UNL1        0.0146
     15 C         141.1455  144.9375  158.0987 C.ar    1  UNL1        0.0503
     16 C         137.8136  143.6419  163.3958 C.3     1  UNL1        0.0722
     17 C         140.9355  141.7225  167.8016 C.2     1  UNL1        0.4049
     18 O         141.6712  142.8567  168.4517 O.2     1  UNL1       -0.2262
     19 N         140.0489  141.9830  166.6200 N.am    1  UNL1       -0.2460
     20 C         139.8980  143.3776  166.0886 C.3     1  UNL1        0.0968
     21 C         139.0114  143.6380  164.9070 C.3     1  UNL1        0.0230
     22 C         138.2758  142.5039  164.2569 C.3     1  UNL1        0.0180
     23 C         137.3796  141.7651  163.3077 C.3     1  UNL1        0.0015
     24 C         138.4267  141.1094  164.7884 C.3     1  UNL1        0.0230
     25 C         139.3133  140.8489  165.9699 C.3     1  UNL1        0.0968
     26 O         141.0865  140.3280  168.3331 O.3     1  UNL1       -0.4345
     27 C         139.0026  140.5250  169.8721 C.3     1  UNL1        0.0513
     28 C         140.3337  139.9075  169.5605 C.3     1  UNL1        0.2102
@<TRIPOS>BOND
     1    27    28    1
     2    28    26    1
     3    26    17    1
     4    17    18    2
     5    17    19   am
     6    19    20    1
     7    20    21    1
     8    21    22    1
     9    22    23    1
    10    22    16    1
    11    16     1    1
    12     1     2    1
    13     2     3    1
    14     3     4    1
    15     4     6    1
    16     6     7   am
    17     7     8    2
    18     7     9    1
    19     9    10    1
    20    10    11   ar
    21    11    12   ar
    22    12    13   ar
    23    13    14   ar
    24    14    15   ar
    25     4     5    1
    26    22    24    1
    27    24    25    1
    28    25    19    1
    29     5     1    1
    30    15     6    1
    31    15    10   ar
@<TRIPOS>MOLECULE
*****
 28 31 0 0 0
SMALL
GASTEIGER

@<TRIPOS>ATOM
      1 N         141.8143  139.3390  157.6982 N.3     1  UNL1       -0.2712
      2 C         140.6997  140.1986  158.2167 C.3     1  UNL1        0.0739
      3 C         140.8454  140.2976  159.7063 C.3     1  UNL1        0.0389
      4 C         142.0499  139.4993  160.1084 C.3     1  UNL1        0.0971
      5 C         142.6488  138.9068  158.8674 C.3     1  UNL1        0.0925
      6 N         142.5652  139.3243  161.5062 N.am    1  UNL1       -0.2589
      7 C         142.1033  138.2939  162.4936 C.2     1  UNL1        0.2338
      8 O         141.0450  137.2576  162.2566 O.2     1  UNL1       -0.2742
      9 C         142.8855  138.4817  163.7596 C.3     1  UNL1        0.1131
     10 C         143.8309  139.6281  163.5547 C.ar    1  UNL1        0.0007
     11 C         144.8464  140.2651  164.4563 C.ar    1  UNL1       -0.0026
     12 C         145.6639  141.4229  163.9653 C.ar    1  UNL1       -0.0002
     13 C         145.4659  141.9436  162.5726 C.ar    1  UNL1        0.0013
     14 C         144.4504  141.3066  161.6709 C.ar    1  UNL1        0.0146
     15 C         143.6329  140.1489  162.1620 C.ar    1  UNL1        0.0503
     16 C         142.0526  138.9753  156.2625 C.3     1  UNL1        0.0722
     17 C         142.8224  133.3305  155.6417 C.2     1  UNL1        0.4049
     18 O         141.5553  132.5939  155.9614 O.2     1  UNL1       -0.2262
     19 N         142.8636  134.8271  155.7344 N.am    1  UNL1       -0.2460
     20 C         141.6379  135.5871  156.1468 C.3     1  UNL1        0.0968
     21 C         141.6791  137.0836  156.2395 C.3     1  UNL1        0.0230
     22 C         142.9460  137.8202  155.9198 C.3     1  UNL1        0.0180
     23 C         143.9027  138.9580  155.7190 C.3     1  UNL1        0.0015
     24 C         144.1718  137.0603  155.5073 C.3     1  UNL1        0.0230
     25 C         144.1305  135.5637  155.4146 C.3     1  UNL1        0.0968
     26 O         144.0480  132.5705  155.2292 O.3     1  UNL1       -0.4345
     27 C         145.1916  132.0366  157.5001 C.3     1  UNL1        0.0513
     28 C         144.6688  131.5809  156.1700 C.3     1  UNL1        0.2102
@<TRIPOS>BOND
     1    27    28    1
     2    28    26    1
     3    26    17    1
     4    17    18    2
     5    17    19   am
     6    19    20    1
     7    20    21    1
     8    21    22    1
     9    22    23    1
    10    22    16    1
    11    16     1    1
    12     1     2    1
    13     2     3    1
    14     3     4    1
    15     4     6    1
    16     6     7   am
    17     7     8    2
    18     7     9    1
    19     9    10    1
    20    10    11   ar
    21    11    12   ar
    22    12    13   ar
    23    13    14   ar
    24    14    15   ar
    25     4     5    1
    26    22    24    1
    27    24    25    1
    28    25    19    1
    29     5     1    1
    30    15     6    1
    31    15    10   ar
