@<TRIPOS>MOLECULE
*****
 31 35 0 0 0
SMALL
GASTEIGER

@<TRIPOS>ATOM
      1 C         142.4269  137.0577  157.0223 C.3     1  UNL1        0.0181
      2 C         142.3311  137.7111  158.3691 C.3     1  UNL1        0.0036
      3 C         141.9417  138.4298  159.6269 C.3     1  UNL1        0.0227
      4 C         140.5177  138.8785  159.4825 C.3     1  UNL1        0.0870
      5 C         140.0269  138.4371  158.1355 C.3     1  UNL1        0.0227
      6 C         141.1477  137.7157  157.4474 C.3     1  UNL1        0.0036
      7 N         139.7238  139.6356  160.5055 N.ar    1  UNL1       -0.3109
      8 C         139.0770  140.9741  160.3057 C.ar    1  UNL1        0.1785
      9 N         138.3907  141.3528  161.5846 N.ar    1  UNL1       -0.2239
     10 C         138.6134  140.2483  162.5748 C.ar    1  UNL1        0.0994
     11 C         138.1724  140.0719  163.9976 C.ar    1  UNL1        0.0309
     12 C         138.5554  138.8342  164.7535 C.ar    1  UNL1        0.0700
     13 C         139.3792  137.7729  164.0865 C.ar    1  UNL1        0.0119
     14 C         139.8202  137.9493  162.6638 C.ar    1  UNL1        0.0194
     15 C         139.4373  139.1870  161.9079 C.ar    1  UNL1        0.0789
     16 C         138.1144  138.6577  166.1764 C.1     1  UNL1        0.1005
     17 N         137.6734  138.4813  167.5992 N.1     1  UNL1       -0.1908
     18 C         143.2208  136.3006  155.9993 C.3     1  UNL1        0.0718
     19 N         142.8123  134.9105  155.6114 N.am    1  UNL1       -0.3025
     20 C         142.9499  133.7863  156.5949 C.2     1  UNL1        0.2458
     21 O         143.4961  134.0523  157.9663 O.2     1  UNL1       -0.2701
     22 H         142.4538  134.7359  154.7112 H       1  UNL1        0.1497
     23 C         142.5414  132.3961  156.2068 C.ar    1  UNL1        0.0534
     24 C         141.4200  132.1883  155.2326 C.ar    1  UNL1        0.0054
     25 C         141.0114  130.7981  154.8446 C.ar    1  UNL1        0.0115
     26 C         141.7243  129.6158  155.4309 C.ar    1  UNL1        0.0577
     27 CL        141.3158  128.2256  155.0429 Cl      1  UNL1       -0.0822
     28 C         142.8458  129.8235  156.4052 C.ar    1  UNL1        0.0115
     29 C         143.2544  131.2137  156.7932 C.ar    1  UNL1        0.0054
     30 C         144.5296  138.4276  155.2832 C.3     1  UNL1        0.0017
     31 C         144.4233  136.9337  155.3642 C.3     1  UNL1        0.0196
@<TRIPOS>BOND
     1    30    31    1
     2    31    18    1
     3    18    19    1
     4    19    20   am
     5    20    21    2
     6    20    23    1
     7    23    24   ar
     8    24    25   ar
     9    25    26   ar
    10    26    27    1
    11    26    28   ar
    12    28    29   ar
    13     1    18    1
    14     1     2    1
    15     2     3    1
    16     3     4    1
    17     4     7    1
    18     7     8   ar
    19     8     9   ar
    20     9    10   ar
    21    10    11   ar
    22    11    12   ar
    23    12    16    1
    24    16    17    3
    25    12    13   ar
    26    13    14   ar
    27    14    15   ar
    28     4     5    1
    29     6     5    1
    30    29    23   ar
    31     6     1    1
    32     6     2    1
    33    15     7   ar
    34    15    10   ar
    35    19    22    1
@<TRIPOS>MOLECULE
*****
 31 35 0 0 0
SMALL
GASTEIGER

@<TRIPOS>ATOM
      1 C         142.6046  137.6695  157.9086 C.3     1  UNL1        0.0181
      2 C         142.5670  137.8901  159.3919 C.3     1  UNL1        0.0036
      3 C         142.3025  138.3158  160.8056 C.3     1  UNL1        0.0227
      4 C         141.2092  139.3426  160.7838 C.3     1  UNL1        0.0870
      5 C         140.7980  139.5515  159.3565 C.3     1  UNL1        0.0227
      6 C         141.6372  138.6538  158.4962 C.3     1  UNL1        0.0036
      7 N         140.6290  140.0383  161.9794 N.ar    1  UNL1       -0.3109
      8 C         140.6661  141.5141  162.2448 C.ar    1  UNL1        0.1785
      9 N         139.9698  141.7682  163.5488 N.ar    1  UNL1       -0.2239
     10 C         139.5023  140.4494  164.0894 C.ar    1  UNL1        0.0994
     11 C         138.7583  140.0840  165.3395 C.ar    1  UNL1        0.0309
     12 C         138.4217  138.6493  165.6196 C.ar    1  UNL1        0.0700
     13 C         138.8290  137.5802  164.6496 C.ar    1  UNL1        0.0119
     14 C         139.5731  137.9456  163.3995 C.ar    1  UNL1        0.0194
     15 C         139.9097  139.3802  163.1194 C.ar    1  UNL1        0.0789
     16 C         137.6776  138.2838  166.8698 C.1     1  UNL1        0.1005
     17 N         136.9336  137.9183  168.1199 N.1     1  UNL1       -0.1908
     18 C         143.1848  136.9738  156.7131 C.3     1  UNL1        0.0718
     19 N         143.2235  135.4752  156.6630 N.am    1  UNL1       -0.3025
     20 C         142.1146  134.7182  155.9942 C.2     1  UNL1        0.2458
     21 O         140.9669  135.4599  155.3755 O.2     1  UNL1       -0.2701
     22 H         143.9768  134.9884  157.0690 H       1  UNL1        0.1497
     23 C         142.1534  133.2195  155.9440 C.ar    1  UNL1        0.0534
     24 C         141.2711  132.4781  154.9840 C.ar    1  UNL1        0.0054
     25 C         141.3099  130.9795  154.9338 C.ar    1  UNL1        0.0115
     26 C         142.2310  130.2222  155.8438 C.ar    1  UNL1        0.0577
     27 CL        142.2697  128.7235  155.7937 Cl      1  UNL1       -0.0822
     28 C         143.1133  130.9636  156.8039 C.ar    1  UNL1        0.0115
     29 C         143.0746  132.4622  156.8541 C.ar    1  UNL1        0.0054
     30 C         142.8392  138.7481  154.8469 C.3     1  UNL1        0.0017
     31 C         143.7263  137.7768  155.5676 C.3     1  UNL1        0.0196
@<TRIPOS>BOND
     1    30    31    1
     2    31    18    1
     3    18    19    1
     4    19    20   am
     5    20    21    2
     6    20    23    1
     7    23    24   ar
     8    24    25   ar
     9    25    26   ar
    10    26    27    1
    11    26    28   ar
    12    28    29   ar
    13     1    18    1
    14     1     2    1
    15     2     3    1
    16     3     4    1
    17     4     7    1
    18     7     8   ar
    19     8     9   ar
    20     9    10   ar
    21    10    11   ar
    22    11    12   ar
    23    12    16    1
    24    16    17    3
    25    12    13   ar
    26    13    14   ar
    27    14    15   ar
    28     4     5    1
    29     6     5    1
    30    29    23   ar
    31     6     1    1
    32     6     2    1
    33    15     7   ar
    34    15    10   ar
    35    19    22    1
@<TRIPOS>MOLECULE
*****
 31 35 0 0 0
SMALL
GASTEIGER

@<TRIPOS>ATOM
      1 C         143.4140  139.7193  160.6446 C.3     1  UNL1        0.0181
      2 C         144.0226  139.8393  162.0104 C.3     1  UNL1        0.0036
      3 C         144.3454  139.8758  163.4748 C.3     1  UNL1        0.0227
      4 C         143.1059  139.5019  164.2322 C.3     1  UNL1        0.0870
      5 C         142.0170  139.2342  163.2360 C.3     1  UNL1        0.0227
      6 C         142.5835  139.4427  161.8628 C.3     1  UNL1        0.0036
      7 N         142.9778  139.4115  165.7240 N.ar    1  UNL1       -0.3109
      8 C         143.6194  138.3792  166.6031 C.ar    1  UNL1        0.1785
      9 N         143.2236  138.6673  168.0210 N.ar    1  UNL1       -0.2239
     10 C         142.3374  139.8775  168.0182 C.ar    1  UNL1        0.0994
     11 C         141.6492  140.6201  169.1249 C.ar    1  UNL1        0.0309
     12 C         140.8090  141.8226  168.8120 C.ar    1  UNL1        0.0700
     13 C         140.6571  142.2826  167.3924 C.ar    1  UNL1        0.0119
     14 C         141.3453  141.5400  166.2857 C.ar    1  UNL1        0.0194
     15 C         142.1855  140.3375  166.5986 C.ar    1  UNL1        0.0789
     16 C         140.1208  142.5653  169.9188 C.1     1  UNL1        0.1005
     17 N         139.4325  143.3079  171.0255 N.1     1  UNL1       -0.1908
     18 C         143.5421  139.8097  159.1529 C.3     1  UNL1        0.0718
     19 N         143.4094  138.5744  158.3125 N.am    1  UNL1       -0.3025
     20 C         142.0915  138.2342  157.6820 C.2     1  UNL1        0.2458
     21 O         140.9063  139.1294  157.8919 O.2     1  UNL1       -0.2701
     22 H         144.1872  137.9868  158.1747 H       1  UNL1        0.1497
     23 C         141.9588  136.9988  156.8415 C.ar    1  UNL1        0.0534
     24 C         142.9424  135.8771  156.9964 C.ar    1  UNL1        0.0054
     25 C         142.8098  134.6418  156.1560 C.ar    1  UNL1        0.0115
     26 C         141.6933  134.5282  155.1607 C.ar    1  UNL1        0.0577
     27 CL        141.5607  133.2929  154.3203 Cl      1  UNL1       -0.0822
     28 C         140.7096  135.6499  155.0058 C.ar    1  UNL1        0.0115
     29 C         140.8423  136.8853  155.8462 C.ar    1  UNL1        0.0054
     30 C         144.2582  142.3009  159.3286 C.3     1  UNL1        0.0017
     31 C         143.8029  141.1355  158.5015 C.3     1  UNL1        0.0196
@<TRIPOS>BOND
     1    30    31    1
     2    31    18    1
     3    18    19    1
     4    19    20   am
     5    20    21    2
     6    20    23    1
     7    23    24   ar
     8    24    25   ar
     9    25    26   ar
    10    26    27    1
    11    26    28   ar
    12    28    29   ar
    13     1    18    1
    14     1     2    1
    15     2     3    1
    16     3     4    1
    17     4     7    1
    18     7     8   ar
    19     8     9   ar
    20     9    10   ar
    21    10    11   ar
    22    11    12   ar
    23    12    16    1
    24    16    17    3
    25    12    13   ar
    26    13    14   ar
    27    14    15   ar
    28     4     5    1
    29     6     5    1
    30    29    23   ar
    31     6     1    1
    32     6     2    1
    33    15     7   ar
    34    15    10   ar
    35    19    22    1
@<TRIPOS>MOLECULE
*****
 31 35 0 0 0
SMALL
GASTEIGER

@<TRIPOS>ATOM
      1 C         142.2083  138.8577  160.7239 C.3     1  UNL1        0.0181
      2 C         141.6057  138.1415  161.8961 C.3     1  UNL1        0.0036
      3 C         140.9234  137.7140  163.1617 C.3     1  UNL1        0.0227
      4 C         140.4159  138.9445  163.8532 C.3     1  UNL1        0.0870
      5 C         140.7846  140.1326  163.0151 C.3     1  UNL1        0.0227
      6 C         141.5200  139.6363  161.8055 C.3     1  UNL1        0.0036
      7 N         139.6706  138.9806  165.1545 N.ar    1  UNL1       -0.3109
      8 C         138.3655  138.2996  165.4422 C.ar    1  UNL1        0.1785
      9 N         137.9879  138.6022  166.8620 N.ar    1  UNL1       -0.2239
     10 C         139.0596  139.4703  167.4517 C.ar    1  UNL1        0.0994
     11 C         139.2229  140.0781  168.8133 C.ar    1  UNL1        0.0309
     12 C         140.4262  140.9197  169.1196 C.ar    1  UNL1        0.0700
     13 C         141.4662  141.1535  168.0642 C.ar    1  UNL1        0.0119
     14 C         141.3029  140.5458  166.7027 C.ar    1  UNL1        0.0194
     15 C         140.0996  139.7042  166.3964 C.ar    1  UNL1        0.0789
     16 C         140.5895  141.5274  170.4812 C.1     1  UNL1        0.1005
     17 N         140.7528  142.1352  171.8428 N.1     1  UNL1       -0.1908
     18 C         142.9536  138.8215  159.4227 C.3     1  UNL1        0.0718
     19 N         143.0626  137.5368  158.6562 N.am    1  UNL1       -0.3025
     20 C         142.2226  137.3199  157.4325 C.2     1  UNL1        0.2458
     21 O         141.2737  138.3878  156.9753 O.2     1  UNL1       -0.2701
     22 H         143.6855  136.8359  158.9563 H       1  UNL1        0.1497
     23 C         142.3317  136.0351  156.6660 C.ar    1  UNL1        0.0534
     24 C         143.3527  135.0101  157.0617 C.ar    1  UNL1        0.0054
     25 C         143.4617  133.7253  156.2952 C.ar    1  UNL1        0.0115
     26 C         142.5497  133.4656  155.1330 C.ar    1  UNL1        0.0577
     27 CL        142.6587  132.1809  154.3665 Cl      1  UNL1       -0.0822
     28 C         141.5286  134.4907  154.7373 C.ar    1  UNL1        0.0115
     29 C         141.4195  135.7755  155.5037 C.ar    1  UNL1        0.0054
     30 C         143.8360  141.2360  159.7989 C.3     1  UNL1        0.0017
     31 C         143.5900  140.0702  158.8879 C.3     1  UNL1        0.0196
@<TRIPOS>BOND
     1    30    31    1
     2    31    18    1
     3    18    19    1
     4    19    20   am
     5    20    21    2
     6    20    23    1
     7    23    24   ar
     8    24    25   ar
     9    25    26   ar
    10    26    27    1
    11    26    28   ar
    12    28    29   ar
    13     1    18    1
    14     1     2    1
    15     2     3    1
    16     3     4    1
    17     4     7    1
    18     7     8   ar
    19     8     9   ar
    20     9    10   ar
    21    10    11   ar
    22    11    12   ar
    23    12    16    1
    24    16    17    3
    25    12    13   ar
    26    13    14   ar
    27    14    15   ar
    28     4     5    1
    29     6     5    1
    30    29    23   ar
    31     6     1    1
    32     6     2    1
    33    15     7   ar
    34    15    10   ar
    35    19    22    1
@<TRIPOS>MOLECULE
*****
 31 35 0 0 0
SMALL
GASTEIGER

@<TRIPOS>ATOM
      1 C         141.9776  138.7307  159.0734 C.3     1  UNL1        0.0181
      2 C         141.9537  139.6059  160.2915 C.3     1  UNL1        0.0036
      3 C         141.7276  140.2674  161.6187 C.3     1  UNL1        0.0227
      4 C         140.7562  139.4288  162.3952 C.3     1  UNL1        0.0870
      5 C         140.3818  138.2490  161.5480 C.3     1  UNL1        0.0227
      6 C         141.1219  138.3584  160.2479 C.3     1  UNL1        0.0036
      7 N         140.2484  139.7191  163.7764 N.ar    1  UNL1       -0.3109
      8 C         138.8538  140.1417  164.1323 C.ar    1  UNL1        0.1785
      9 N         138.7895  140.3214  165.6201 N.ar    1  UNL1       -0.2239
     10 C         140.1442  140.0099  166.1837 C.ar    1  UNL1        0.0994
     11 C         140.6733  140.0171  167.5873 C.ar    1  UNL1        0.0309
     12 C         142.1040  139.6521  167.8513 C.ar    1  UNL1        0.0700
     13 C         143.0056  139.2798  166.7119 C.ar    1  UNL1        0.0119
     14 C         142.4766  139.2725  165.3083 C.ar    1  UNL1        0.0194
     15 C         141.0459  139.6376  165.0442 C.ar    1  UNL1        0.0789
     16 C         142.6331  139.6593  169.2550 C.1     1  UNL1        0.1005
     17 N         143.1623  139.6665  170.6585 N.1     1  UNL1       -0.1908
     18 C         142.4854  138.4405  157.6923 C.3     1  UNL1        0.0718
     19 N         143.0834  137.1010  157.3791 N.am    1  UNL1       -0.3025
     20 C         142.2830  136.0798  156.6263 C.2     1  UNL1        0.2458
     21 O         140.8847  136.3982  156.1866 O.2     1  UNL1       -0.2701
     22 H         144.0011  136.8920  157.6677 H       1  UNL1        0.1497
     23 C         142.8810  134.7402  156.3131 C.ar    1  UNL1        0.0534
     24 C         142.5881  134.0765  155.0003 C.ar    1  UNL1        0.0054
     25 C         143.1860  132.7370  154.6872 C.ar    1  UNL1        0.0115
     26 C         144.0770  132.0612  155.6869 C.ar    1  UNL1        0.0577
     27 CL        144.6750  130.7217  155.3737 Cl      1  UNL1       -0.0822
     28 C         144.3700  132.7249  156.9998 C.ar    1  UNL1        0.0115
     29 C         143.7721  134.0644  157.3129 C.ar    1  UNL1        0.0054
     30 C         141.0540  139.9410  156.1272 C.3     1  UNL1        0.0017
     31 C         142.3953  139.4898  156.6241 C.3     1  UNL1        0.0196
@<TRIPOS>BOND
     1    30    31    1
     2    31    18    1
     3    18    19    1
     4    19    20   am
     5    20    21    2
     6    20    23    1
     7    23    24   ar
     8    24    25   ar
     9    25    26   ar
    10    26    27    1
    11    26    28   ar
    12    28    29   ar
    13     1    18    1
    14     1     2    1
    15     2     3    1
    16     3     4    1
    17     4     7    1
    18     7     8   ar
    19     8     9   ar
    20     9    10   ar
    21    10    11   ar
    22    11    12   ar
    23    12    16    1
    24    16    17    3
    25    12    13   ar
    26    13    14   ar
    27    14    15   ar
    28     4     5    1
    29     6     5    1
    30    29    23   ar
    31     6     1    1
    32     6     2    1
    33    15     7   ar
    34    15    10   ar
    35    19    22    1
@<TRIPOS>MOLECULE
*****
 31 35 0 0 0
SMALL
GASTEIGER

@<TRIPOS>ATOM
      1 C         141.0812  137.2412  156.7642 C.3     1  UNL1        0.0181
      2 C         141.6628  137.9497  157.9516 C.3     1  UNL1        0.0036
      3 C         141.9441  138.7124  159.2122 C.3     1  UNL1        0.0227
      4 C         140.6304  139.1195  159.8108 C.3     1  UNL1        0.0870
      5 C         139.5370  138.6084  158.9201 C.3     1  UNL1        0.0227
      6 C         140.1750  137.8855  157.7711 C.3     1  UNL1        0.0036
      7 N         140.4430  139.9005  161.0776 N.ar    1  UNL1       -0.3109
      8 C         140.8423  141.3292  161.2999 C.ar    1  UNL1        0.1785
      9 N         140.4693  141.7015  162.7042 N.ar    1  UNL1       -0.2239
     10 C         139.8395  140.5030  163.3499 C.ar    1  UNL1        0.0994
     11 C         139.2788  140.2815  164.7234 C.ar    1  UNL1        0.0309
     12 C         138.7018  138.9468  165.0915 C.ar    1  UNL1        0.0700
     13 C         138.6855  137.8336  164.0862 C.ar    1  UNL1        0.0119
     14 C         139.2462  138.0552  162.7128 C.ar    1  UNL1        0.0194
     15 C         139.8232  139.3899  162.3446 C.ar    1  UNL1        0.0789
     16 C         138.1410  138.7252  166.4651 C.1     1  UNL1        0.1005
     17 N         137.5803  138.5035  167.8385 N.1     1  UNL1       -0.1908
     18 C         141.2687  136.4602  155.4974 C.3     1  UNL1        0.0718
     19 N         141.5029  134.9798  155.5567 N.am    1  UNL1       -0.3025
     20 C         142.8918  134.4474  155.7508 C.2     1  UNL1        0.2458
     21 O         144.0464  135.3954  155.8856 O.2     1  UNL1       -0.2701
     22 H         140.7451  134.3576  155.4682 H       1  UNL1        0.1497
     23 C         143.1260  132.9669  155.8101 C.ar    1  UNL1        0.0534
     24 C         144.5057  132.4354  156.0624 C.ar    1  UNL1        0.0054
     25 C         144.7399  130.9550  156.1217 C.ar    1  UNL1        0.0115
     26 C         143.5944  130.0061  155.9286 C.ar    1  UNL1        0.0577
     27 CL        143.8286  128.5257  155.9879 Cl      1  UNL1       -0.0822
     28 C         142.2146  130.5376  155.6762 C.ar    1  UNL1        0.0115
     29 C         141.9803  132.0180  155.6169 C.ar    1  UNL1        0.0054
     30 C         141.8136  136.5064  152.9575 C.3     1  UNL1        0.0017
     31 C         141.2219  137.1596  154.1712 C.3     1  UNL1        0.0196
@<TRIPOS>BOND
     1    30    31    1
     2    31    18    1
     3    18    19    1
     4    19    20   am
     5    20    21    2
     6    20    23    1
     7    23    24   ar
     8    24    25   ar
     9    25    26   ar
    10    26    27    1
    11    26    28   ar
    12    28    29   ar
    13     1    18    1
    14     1     2    1
    15     2     3    1
    16     3     4    1
    17     4     7    1
    18     7     8   ar
    19     8     9   ar
    20     9    10   ar
    21    10    11   ar
    22    11    12   ar
    23    12    16    1
    24    16    17    3
    25    12    13   ar
    26    13    14   ar
    27    14    15   ar
    28     4     5    1
    29     6     5    1
    30    29    23   ar
    31     6     1    1
    32     6     2    1
    33    15     7   ar
    34    15    10   ar
    35    19    22    1
@<TRIPOS>MOLECULE
*****
 31 35 0 0 0
SMALL
GASTEIGER

@<TRIPOS>ATOM
      1 C         142.3694  143.1500  162.1224 C.3     1  UNL1        0.0181
      2 C         142.8974  141.9880  161.3342 C.3     1  UNL1        0.0036
      3 C         143.4313  141.0318  160.3092 C.3     1  UNL1        0.0227
      4 C         143.5698  141.7723  159.0121 C.3     1  UNL1        0.0870
      5 C         143.1215  143.1862  159.2354 C.3     1  UNL1        0.0227
      6 C         142.7059  143.3195  160.6705 C.3     1  UNL1        0.0036
      7 N         144.0689  141.1994  157.7188 N.ar    1  UNL1       -0.3109
      8 C         143.3783  140.1556  156.8920 C.ar    1  UNL1        0.1785
      9 N         144.2289  139.8810  155.6874 N.ar    1  UNL1       -0.2239
     10 C         145.4452  140.7550  155.7697 C.ar    1  UNL1        0.0994
     11 C         146.6300  140.9141  154.8636 C.ar    1  UNL1        0.0309
     12 C         147.7158  141.8881  155.2131 C.ar    1  UNL1        0.0700
     13 C         147.6170  142.7030  156.4685 C.ar    1  UNL1        0.0119
     14 C         146.4322  142.5439  157.3746 C.ar    1  UNL1        0.0194
     15 C         145.3463  141.5699  157.0252 C.ar    1  UNL1        0.0789
     16 C         148.9007  142.0473  154.3070 C.1     1  UNL1        0.1005
     17 N         150.0854  142.2064  153.4009 N.1     1  UNL1       -0.1908
     18 C         141.8703  143.7228  163.4157 C.3     1  UNL1        0.0718
     19 N         141.7749  142.8530  164.6340 N.am    1  UNL1       -0.3025
     20 C         143.0061  142.5438  165.4331 C.2     1  UNL1        0.2458
     21 O         144.3327  143.1044  165.0138 O.2     1  UNL1       -0.2701
     22 H         140.9042  142.4850  164.9092 H       1  UNL1        0.1497
     23 C         142.9107  141.6739  166.6515 C.ar    1  UNL1        0.0534
     24 C         142.6684  140.2011  166.5043 C.ar    1  UNL1        0.0054
     25 C         142.5730  139.3312  167.7226 C.ar    1  UNL1        0.0115
     26 C         142.7199  139.9344  169.0881 C.ar    1  UNL1        0.0577
     27 CL        142.6244  139.0646  170.3064 Cl      1  UNL1       -0.0822
     28 C         142.9621  141.4074  169.2353 C.ar    1  UNL1        0.0115
     29 C         143.0576  142.2772  168.0170 C.ar    1  UNL1        0.0054
     30 C         140.4938  145.7249  162.4954 C.3     1  UNL1        0.0017
     31 C         141.4665  145.1655  163.4907 C.3     1  UNL1        0.0196
@<TRIPOS>BOND
     1    30    31    1
     2    31    18    1
     3    18    19    1
     4    19    20   am
     5    20    21    2
     6    20    23    1
     7    23    24   ar
     8    24    25   ar
     9    25    26   ar
    10    26    27    1
    11    26    28   ar
    12    28    29   ar
    13     1    18    1
    14     1     2    1
    15     2     3    1
    16     3     4    1
    17     4     7    1
    18     7     8   ar
    19     8     9   ar
    20     9    10   ar
    21    10    11   ar
    22    11    12   ar
    23    12    16    1
    24    16    17    3
    25    12    13   ar
    26    13    14   ar
    27    14    15   ar
    28     4     5    1
    29     6     5    1
    30    29    23   ar
    31     6     1    1
    32     6     2    1
    33    15     7   ar
    34    15    10   ar
    35    19    22    1
@<TRIPOS>MOLECULE
*****
 31 35 0 0 0
SMALL
GASTEIGER

@<TRIPOS>ATOM
      1 C         142.1627  139.1782  158.3192 C.3     1  UNL1        0.0181
      2 C         141.5690  139.8994  159.4929 C.3     1  UNL1        0.0036
      3 C         141.2684  140.6113  160.7786 C.3     1  UNL1        0.0227
      4 C         142.5448  140.7175  161.5592 C.3     1  UNL1        0.0870
      5 C         143.6344  140.0713  160.7560 C.3     1  UNL1        0.0227
      6 C         143.0314  139.5657  159.4790 C.3     1  UNL1        0.0036
      7 N         142.7037  141.3576  162.9064 N.ar    1  UNL1       -0.3109
      8 C         142.9226  142.8182  163.1683 C.ar    1  UNL1        0.1785
      9 N         143.0258  143.0127  164.6521 N.ar    1  UNL1       -0.2239
     10 C         142.8707  141.6722  165.3072 C.ar    1  UNL1        0.0994
     11 C         142.8851  141.2510  166.7467 C.ar    1  UNL1        0.0309
     12 C         142.7003  139.8068  167.1074 C.ar    1  UNL1        0.0700
     13 C         142.5012  138.7839  166.0285 C.ar    1  UNL1        0.0119
     14 C         142.4869  139.2051  164.5890 C.ar    1  UNL1        0.0194
     15 C         142.6716  140.6493  164.2283 C.ar    1  UNL1        0.0789
     16 C         142.7146  139.3854  168.5470 C.1     1  UNL1        0.1005
     17 N         142.7289  138.9641  169.9864 N.1     1  UNL1       -0.1908
     18 C         142.0038  138.5382  156.9720 C.3     1  UNL1        0.0718
     19 N         141.8239  137.0530  156.8638 N.am    1  UNL1       -0.3025
     20 C         142.9597  136.1921  156.3958 C.2     1  UNL1        0.2458
     21 O         144.2752  136.8164  156.0360 O.2     1  UNL1       -0.2701
     22 H         140.9605  136.6432  157.0999 H       1  UNL1        0.1497
     23 C         142.7798  134.7068  156.2875 C.ar    1  UNL1        0.0534
     24 C         141.7296  134.1429  155.3771 C.ar    1  UNL1        0.0054
     25 C         141.5497  132.6576  155.2689 C.ar    1  UNL1        0.0115
     26 C         142.4201  131.7363  156.0711 C.ar    1  UNL1        0.0577
     27 CL        142.2402  130.2511  155.9629 Cl      1  UNL1       -0.0822
     28 C         143.4704  132.3002  156.9815 C.ar    1  UNL1        0.0115
     29 C         143.6503  133.7855  157.0898 C.ar    1  UNL1        0.0054
     30 C         143.0465  140.4712  155.5842 C.3     1  UNL1        0.0017
     31 C         142.0247  139.3834  155.7329 C.3     1  UNL1        0.0196
@<TRIPOS>BOND
     1    30    31    1
     2    31    18    1
     3    18    19    1
     4    19    20   am
     5    20    21    2
     6    20    23    1
     7    23    24   ar
     8    24    25   ar
     9    25    26   ar
    10    26    27    1
    11    26    28   ar
    12    28    29   ar
    13     1    18    1
    14     1     2    1
    15     2     3    1
    16     3     4    1
    17     4     7    1
    18     7     8   ar
    19     8     9   ar
    20     9    10   ar
    21    10    11   ar
    22    11    12   ar
    23    12    16    1
    24    16    17    3
    25    12    13   ar
    26    13    14   ar
    27    14    15   ar
    28     4     5    1
    29     6     5    1
    30    29    23   ar
    31     6     1    1
    32     6     2    1
    33    15     7   ar
    34    15    10   ar
    35    19    22    1
@<TRIPOS>MOLECULE
*****
 31 35 0 0 0
SMALL
GASTEIGER

@<TRIPOS>ATOM
      1 C         142.1600  143.4949  159.1547 C.3     1  UNL1        0.0181
      2 C         142.6777  143.1775  160.5264 C.3     1  UNL1        0.0036
      3 C         142.8911  142.8413  161.9726 C.3     1  UNL1        0.0227
      4 C         141.5452  142.6855  162.6159 C.3     1  UNL1        0.0870
      5 C         140.4997  142.9254  161.5674 C.3     1  UNL1        0.0227
      6 C         141.1996  143.2294  160.2760 C.3     1  UNL1        0.0036
      7 N         141.2894  142.3490  164.0552 N.ar    1  UNL1       -0.3109
      8 C         141.9649  142.9732  165.2401 C.ar    1  UNL1        0.1785
      9 N         141.4063  142.3391  166.4793 N.ar    1  UNL1       -0.2239
     10 C         140.3855  141.3230  166.0604 C.ar    1  UNL1        0.0994
     11 C         139.5125  140.3930  166.8495 C.ar    1  UNL1        0.0309
     12 C         138.5672  139.4691  166.1404 C.ar    1  UNL1        0.0700
     13 C         138.4950  139.4752  164.6422 C.ar    1  UNL1        0.0119
     14 C         139.3681  140.4052  163.8530 C.ar    1  UNL1        0.0194
     15 C         140.3133  141.3291  164.5621 C.ar    1  UNL1        0.0789
     16 C         137.6941  138.5390  166.9296 C.1     1  UNL1        0.1005
     17 N         136.8211  137.6089  167.7187 N.1     1  UNL1       -0.1908
     18 C         142.4157  143.8314  157.7156 C.3     1  UNL1        0.0718
     19 N         143.7854  143.6445  157.1335 N.am    1  UNL1       -0.3025
     20 C         144.1347  142.3646  156.4337 C.2     1  UNL1        0.2458
     21 O         143.1142  141.2716  156.3159 O.2     1  UNL1       -0.2701
     22 H         144.4552  144.3619  157.2108 H       1  UNL1        0.1497
     23 C         145.5046  142.1777  155.8516 C.ar    1  UNL1        0.0534
     24 C         146.7187  142.4238  156.6972 C.ar    1  UNL1        0.0054
     25 C         148.0885  142.2369  156.1151 C.ar    1  UNL1        0.0115
     26 C         148.2441  141.8040  154.6874 C.ar    1  UNL1        0.0577
     27 CL        149.6138  141.6171  154.1054 Cl      1  UNL1       -0.0822
     28 C         147.0298  141.5579  153.8418 C.ar    1  UNL1        0.0115
     29 C         145.6601  141.7447  154.4238 C.ar    1  UNL1        0.0054
     30 C         141.6143  145.1205  155.6070 C.3     1  UNL1        0.0017
     31 C         141.3016  144.3549  156.8583 C.3     1  UNL1        0.0196
@<TRIPOS>BOND
     1    30    31    1
     2    31    18    1
     3    18    19    1
     4    19    20   am
     5    20    21    2
     6    20    23    1
     7    23    24   ar
     8    24    25   ar
     9    25    26   ar
    10    26    27    1
    11    26    28   ar
    12    28    29   ar
    13     1    18    1
    14     1     2    1
    15     2     3    1
    16     3     4    1
    17     4     7    1
    18     7     8   ar
    19     8     9   ar
    20     9    10   ar
    21    10    11   ar
    22    11    12   ar
    23    12    16    1
    24    16    17    3
    25    12    13   ar
    26    13    14   ar
    27    14    15   ar
    28     4     5    1
    29     6     5    1
    30    29    23   ar
    31     6     1    1
    32     6     2    1
    33    15     7   ar
    34    15    10   ar
    35    19    22    1
