@<TRIPOS>MOLECULE
*****
 24 25 0 0 0
SMALL
GASTEIGER

@<TRIPOS>ATOM
      1 C         139.0413  139.8872  165.2250 C.ar    1  UNL1        0.1327
      2 N         138.1198  138.7716  165.6202 N.ar    1  UNL1       -0.1993
      3 C         137.8763  138.4783  167.0710 C.ar    1  UNL1        0.2148
      4 N         136.9547  137.3626  167.4662 N.pl3   1  UNL1       -0.3274
      5 N         138.5543  139.3005  168.1265 N.ar    1  UNL1       -0.2138
      6 C         139.4759  140.4162  167.7313 C.ar    1  UNL1        0.0891
      7 C         140.1538  141.2385  168.7868 C.ar    1  UNL1        0.0489
      8 C         141.0754  142.3540  168.3916 C.ar    1  UNL1        0.1416
      9 F         141.7534  143.1764  169.4472 F       1  UNL1       -0.2041
     10 C         141.3189  142.6473  166.9409 C.ar    1  UNL1        0.0298
     11 C         140.6409  141.8251  165.8854 C.ar    1  UNL1        0.0066
     12 C         139.7194  140.7095  166.2806 C.ar    1  UNL1        0.0493
     13 H         136.5097  136.8230  166.7734 H       1  UNL1        0.1452
     14 H         136.7949  137.1701  168.4183 H       1  UNL1        0.1452
     15 N         139.2849  140.1805  163.7743 N.pl3   1  UNL1       -0.3195
     16 H         140.2017  140.1642  163.4159 H       1  UNL1        0.1481
     17 C         138.1316  140.4987  162.8695 C.3     1  UNL1        0.0729
     18 C         137.2213  141.6469  163.1902 C.3     1  UNL1        0.0196
     19 C         137.8990  143.7764  164.5155 C.3     1  UNL1        0.0001
     20 C         137.7593  143.0470  163.2123 C.3     1  UNL1        0.0017
     21 C         137.8885  139.6685  161.6440 C.3     1  UNL1        0.0512
     22 C         137.7564  138.1790  161.7612 C.3     1  UNL1        0.1389
     23 O         138.6033  137.4260  162.7439 O.3     1  UNL1       -0.3819
     24 H         139.5350  137.4862  162.4806 H       1  UNL1        0.2104
@<TRIPOS>BOND
     1    19    20    1
     2    20    18    1
     3    17    18    1
     4    17    21    1
     5    21    22    1
     6    22    23    1
     7    17    15    1
     8    15     1    1
     9     1     2   ar
    10     2     3   ar
    11     3     4    1
    12     3     5   ar
    13     5     6   ar
    14     6     7   ar
    15     7     8   ar
    16     8     9    1
    17     8    10   ar
    18    10    11   ar
    19    11    12   ar
    20    12     1   ar
    21    12     6   ar
    22    23    24    1
    23    15    16    1
    24     4    13    1
    25     4    14    1
@<TRIPOS>MOLECULE
*****
 24 25 0 0 0
SMALL
GASTEIGER

@<TRIPOS>ATOM
      1 C         140.0852  140.2027  167.8329 C.ar    1  UNL1        0.1327
      2 N         138.8647  139.6865  168.5356 N.ar    1  UNL1       -0.1993
      3 C         138.6430  140.0041  169.9847 C.ar    1  UNL1        0.2148
      4 N         137.4224  139.4878  170.6874 N.pl3   1  UNL1       -0.3274
      5 N         139.6416  140.8380  170.7311 N.ar    1  UNL1       -0.2138
      6 C         140.8622  141.3544  170.0284 C.ar    1  UNL1        0.0891
      7 C         141.8609  142.1883  170.7748 C.ar    1  UNL1        0.0489
      8 C         143.0814  142.7045  170.0720 C.ar    1  UNL1        0.1416
      9 F         144.0802  143.5385  170.8184 F       1  UNL1       -0.2041
     10 C         143.3032  142.3869  168.6229 C.ar    1  UNL1        0.0298
     11 C         142.3045  141.5530  167.8766 C.ar    1  UNL1        0.0066
     12 C         141.0840  141.0367  168.5793 C.ar    1  UNL1        0.0493
     13 H         136.7669  138.9405  170.1975 H       1  UNL1        0.1452
     14 H         137.2768  139.6963  171.6385 H       1  UNL1        0.1452
     15 N         140.3070  139.8851  166.3838 N.pl3   1  UNL1       -0.3195
     16 H         140.9132  139.1529  166.1275 H       1  UNL1        0.1481
     17 C         139.6052  140.6830  165.3251 C.3     1  UNL1        0.0729
     18 C         140.2675  141.8926  164.7351 C.3     1  UNL1        0.0196
     19 C         138.8893  144.0492  165.1822 C.3     1  UNL1        0.0001
     20 C         140.1244  143.2275  165.4043 C.3     1  UNL1        0.0017
     21 C         138.2410  140.2713  164.8565 C.3     1  UNL1        0.0512
     22 C         137.8270  140.5259  163.4374 C.3     1  UNL1        0.1389
     23 O         136.6637  141.4267  163.1457 O.3     1  UNL1       -0.3819
     24 H         135.8490  141.0220  163.4824 H       1  UNL1        0.2104
@<TRIPOS>BOND
     1    19    20    1
     2    20    18    1
     3    17    18    1
     4    17    21    1
     5    21    22    1
     6    22    23    1
     7    17    15    1
     8    15     1    1
     9     1     2   ar
    10     2     3   ar
    11     3     4    1
    12     3     5   ar
    13     5     6   ar
    14     6     7   ar
    15     7     8   ar
    16     8     9    1
    17     8    10   ar
    18    10    11   ar
    19    11    12   ar
    20    12     1   ar
    21    12     6   ar
    22    23    24    1
    23    15    16    1
    24     4    13    1
    25     4    14    1
@<TRIPOS>MOLECULE
*****
 24 25 0 0 0
SMALL
GASTEIGER

@<TRIPOS>ATOM
      1 C         140.1413  141.0212  166.5891 C.ar    1  UNL1        0.1327
      2 N         139.8466  139.5515  166.5340 N.ar    1  UNL1       -0.1993
      3 C         138.8299  139.0262  165.5643 C.ar    1  UNL1        0.2148
      4 N         138.5352  137.5564  165.5092 N.pl3   1  UNL1       -0.3274
      5 N         138.1078  139.9707  164.6497 N.ar    1  UNL1       -0.2138
      6 C         138.4025  141.4405  164.7048 C.ar    1  UNL1        0.0891
      7 C         137.6804  142.3849  163.7902 C.ar    1  UNL1        0.0489
      8 C         137.9750  143.8546  163.8452 C.ar    1  UNL1        0.1416
      9 F         137.2530  144.7992  162.9306 F       1  UNL1       -0.2041
     10 C         138.9918  144.3799  164.8150 C.ar    1  UNL1        0.0298
     11 C         139.7139  143.4354  165.7296 C.ar    1  UNL1        0.0066
     12 C         139.4192  141.9657  165.6745 C.ar    1  UNL1        0.0493
     13 H         139.0092  136.9366  166.1096 H       1  UNL1        0.1452
     14 H         137.8679  137.2117  164.8728 H       1  UNL1        0.1452
     15 N         141.1580  141.5465  167.5588 N.pl3   1  UNL1       -0.3195
     16 H         142.1016  141.6241  167.2889 H       1  UNL1        0.1481
     17 C         140.7372  141.9534  168.9398 C.3     1  UNL1        0.0729
     18 C         141.3298  143.1764  169.5747 C.3     1  UNL1        0.0196
     19 C         143.7819  142.3471  169.7981 C.3     1  UNL1        0.0001
     20 C         142.5978  143.0694  170.3691 C.3     1  UNL1        0.0017
     21 C         139.7236  141.1374  169.6860 C.3     1  UNL1        0.0512
     22 C         140.1736  140.1162  170.6883 C.3     1  UNL1        0.1389
     23 O         140.6919  140.5555  172.0256 O.3     1  UNL1       -0.3819
     24 H         141.5220  141.0428  171.9064 H       1  UNL1        0.2104
@<TRIPOS>BOND
     1    19    20    1
     2    20    18    1
     3    17    18    1
     4    17    21    1
     5    21    22    1
     6    22    23    1
     7    17    15    1
     8    15     1    1
     9     1     2   ar
    10     2     3   ar
    11     3     4    1
    12     3     5   ar
    13     5     6   ar
    14     6     7   ar
    15     7     8   ar
    16     8     9    1
    17     8    10   ar
    18    10    11   ar
    19    11    12   ar
    20    12     1   ar
    21    12     6   ar
    22    23    24    1
    23    15    16    1
    24     4    13    1
    25     4    14    1
@<TRIPOS>MOLECULE
*****
 24 25 0 0 0
SMALL
GASTEIGER

@<TRIPOS>ATOM
      1 C         139.4387  140.3009  167.1538 C.ar    1  UNL1        0.1327
      2 N         139.1640  139.7845  168.5350 N.ar    1  UNL1       -0.1993
      3 C         140.1507  140.0304  169.6377 C.ar    1  UNL1        0.2148
      4 N         139.8760  139.5139  171.0190 N.pl3   1  UNL1       -0.3274
      5 N         141.4121  140.7928  169.3592 N.ar    1  UNL1       -0.2138
      6 C         141.6868  141.3093  167.9779 C.ar    1  UNL1        0.0891
      7 C         142.9482  142.0716  167.6994 C.ar    1  UNL1        0.0489
      8 C         143.2229  142.5881  166.3182 C.ar    1  UNL1        0.1416
      9 F         144.4844  143.3505  166.0396 F       1  UNL1       -0.2041
     10 C         142.2362  142.3421  165.2155 C.ar    1  UNL1        0.0298
     11 C         140.9748  141.5798  165.4940 C.ar    1  UNL1        0.0066
     12 C         140.7001  141.0633  166.8752 C.ar    1  UNL1        0.0493
     13 H         139.0481  139.0135  171.2018 H       1  UNL1        0.1452
     14 H         140.5236  139.6753  171.7427 H       1  UNL1        0.1452
     15 N         138.4520  140.0550  166.0511 N.pl3   1  UNL1       -0.3195
     16 H         137.5823  140.5164  166.0568 H       1  UNL1        0.1481
     17 C         138.7903  139.1060  164.9398 C.3     1  UNL1        0.0729
     18 C         139.4126  137.7773  165.2515 C.3     1  UNL1        0.0196
     19 C         141.9891  138.0424  165.0477 C.3     1  UNL1        0.0001
     20 C         140.7118  137.3887  164.6103 C.3     1  UNL1        0.0017
     21 C         138.5063  139.4859  163.5167 C.3     1  UNL1        0.0512
     22 C         138.0910  140.8881  163.1833 C.3     1  UNL1        0.1389
     23 O         136.6351  141.2406  163.1052 O.3     1  UNL1       -0.3819
     24 H         136.2278  140.7694  162.3615 H       1  UNL1        0.2104
@<TRIPOS>BOND
     1    19    20    1
     2    20    18    1
     3    17    18    1
     4    17    21    1
     5    21    22    1
     6    22    23    1
     7    17    15    1
     8    15     1    1
     9     1     2   ar
    10     2     3   ar
    11     3     4    1
    12     3     5   ar
    13     5     6   ar
    14     6     7   ar
    15     7     8   ar
    16     8     9    1
    17     8    10   ar
    18    10    11   ar
    19    11    12   ar
    20    12     1   ar
    21    12     6   ar
    22    23    24    1
    23    15    16    1
    24     4    13    1
    25     4    14    1
@<TRIPOS>MOLECULE
*****
 24 25 0 0 0
SMALL
GASTEIGER

@<TRIPOS>ATOM
      1 C         142.8383  139.2050  164.5819 C.ar    1  UNL1        0.1327
      2 N         143.2288  138.5059  163.3136 N.ar    1  UNL1       -0.1993
      3 C         144.1624  139.1721  162.3468 C.ar    1  UNL1        0.2148
      4 N         144.5528  138.4729  161.0784 N.pl3   1  UNL1       -0.3274
      5 N         144.7054  140.5374  162.6484 N.ar    1  UNL1       -0.2138
      6 C         144.3150  141.2365  163.9168 C.ar    1  UNL1        0.0891
      7 C         144.8580  142.6018  164.2184 C.ar    1  UNL1        0.0489
      8 C         144.4675  143.3009  165.4868 C.ar    1  UNL1        0.1416
      9 F         145.0106  144.6663  165.7884 F       1  UNL1       -0.2041
     10 C         143.5340  142.6347  166.4535 C.ar    1  UNL1        0.0298
     11 C         142.9909  141.2694  166.1519 C.ar    1  UNL1        0.0066
     12 C         143.3814  140.5703  164.8836 C.ar    1  UNL1        0.0493
     13 H         144.1964  137.5768  160.8805 H       1  UNL1        0.1452
     14 H         145.1656  138.9102  160.4439 H       1  UNL1        0.1452
     15 N         141.9047  138.5388  165.5487 N.pl3   1  UNL1       -0.3195
     16 H         142.2657  138.0191  166.3029 H       1  UNL1        0.1481
     17 C         140.4212  138.6643  165.3663 C.3     1  UNL1        0.0729
     18 C         139.6857  139.8204  165.9766 C.3     1  UNL1        0.0196
     19 C         140.0054  140.8846  168.3250 C.3     1  UNL1        0.0001
     20 C         139.3951  139.8317  167.4482 C.3     1  UNL1        0.0017
     21 C         139.6731  137.6337  164.5735 C.3     1  UNL1        0.0512
     22 C         139.8462  137.5612  163.0853 C.3     1  UNL1        0.1389
     23 O         141.0660  136.9109  162.5030 O.3     1  UNL1       -0.3819
     24 H         141.8511  137.4322  162.7325 H       1  UNL1        0.2104
@<TRIPOS>BOND
     1    19    20    1
     2    20    18    1
     3    17    18    1
     4    17    21    1
     5    21    22    1
     6    22    23    1
     7    17    15    1
     8    15     1    1
     9     1     2   ar
    10     2     3   ar
    11     3     4    1
    12     3     5   ar
    13     5     6   ar
    14     6     7   ar
    15     7     8   ar
    16     8     9    1
    17     8    10   ar
    18    10    11   ar
    19    11    12   ar
    20    12     1   ar
    21    12     6   ar
    22    23    24    1
    23    15    16    1
    24     4    13    1
    25     4    14    1
@<TRIPOS>MOLECULE
*****
 24 25 0 0 0
SMALL
GASTEIGER

@<TRIPOS>ATOM
      1 C         141.5604  144.2786  163.9327 C.ar    1  UNL1        0.1327
      2 N         142.7228  144.3743  162.9895 N.ar    1  UNL1       -0.1993
      3 C         143.7811  143.3113  162.9932 C.ar    1  UNL1        0.2148
      4 N         144.9435  143.4071  162.0499 N.pl3   1  UNL1       -0.3274
      5 N         143.6771  142.1527  163.9400 N.ar    1  UNL1       -0.2138
      6 C         142.5147  142.0569  164.8833 C.ar    1  UNL1        0.0891
      7 C         142.4106  140.8982  165.8302 C.ar    1  UNL1        0.0489
      8 C         141.2483  140.8025  166.7734 C.ar    1  UNL1        0.1416
      9 F         141.1442  139.6438  167.7203 F       1  UNL1       -0.2041
     10 C         140.1899  141.8655  166.7697 C.ar    1  UNL1        0.0298
     11 C         140.2940  143.0242  165.8229 C.ar    1  UNL1        0.0066
     12 C         141.4563  143.1199  164.8797 C.ar    1  UNL1        0.0493
     13 H         145.0118  144.1676  161.4284 H       1  UNL1        0.1452
     14 H         145.6382  142.7094  162.0523 H       1  UNL1        0.1452
     15 N         140.5021  145.3416  163.9291 N.pl3   1  UNL1       -0.3195
     16 H         140.5038  146.0403  164.6227 H       1  UNL1        0.1481
     17 C         139.4412  145.3400  162.8687 C.3     1  UNL1        0.0729
     18 C         138.1751  144.5627  163.0755 C.3     1  UNL1        0.0196
     19 C         137.4917  142.0689  163.3290 C.3     1  UNL1        0.0001
     20 C         138.0350  143.1883  162.4912 C.3     1  UNL1        0.0017
     21 C         139.6464  146.1159  161.6014 C.3     1  UNL1        0.0512
     22 C         140.3231  145.4710  160.4284 C.3     1  UNL1        0.1389
     23 O         141.8204  145.4016  160.3714 O.3     1  UNL1       -0.3819
     24 H         142.1829  146.2981  160.2952 H       1  UNL1        0.2104
@<TRIPOS>BOND
     1    19    20    1
     2    20    18    1
     3    17    18    1
     4    17    21    1
     5    21    22    1
     6    22    23    1
     7    17    15    1
     8    15     1    1
     9     1     2   ar
    10     2     3   ar
    11     3     4    1
    12     3     5   ar
    13     5     6   ar
    14     6     7   ar
    15     7     8   ar
    16     8     9    1
    17     8    10   ar
    18    10    11   ar
    19    11    12   ar
    20    12     1   ar
    21    12     6   ar
    22    23    24    1
    23    15    16    1
    24     4    13    1
    25     4    14    1
@<TRIPOS>MOLECULE
*****
 24 25 0 0 0
SMALL
GASTEIGER

@<TRIPOS>ATOM
      1 C         140.9658  144.9794  162.9395 C.ar    1  UNL1        0.1327
      2 N         140.4073  145.3805  161.6065 N.ar    1  UNL1       -0.1993
      3 C         141.1437  145.0284  160.3480 C.ar    1  UNL1        0.2148
      4 N         140.5851  145.4296  159.0149 N.pl3   1  UNL1       -0.3274
      5 N         142.4386  144.2750  160.4226 N.ar    1  UNL1       -0.2138
      6 C         142.9972  143.8738  161.7557 C.ar    1  UNL1        0.0891
      7 C         144.2921  143.1205  161.8303 C.ar    1  UNL1        0.0489
      8 C         144.8507  142.7193  163.1633 C.ar    1  UNL1        0.1416
      9 F         146.1456  141.9659  163.2380 F       1  UNL1       -0.2041
     10 C         144.1143  143.0715  164.4218 C.ar    1  UNL1        0.0298
     11 C         142.8193  143.8248  164.3472 C.ar    1  UNL1        0.0066
     12 C         142.2608  144.2260  163.0141 C.ar    1  UNL1        0.0493
     13 H         139.7352  145.9240  158.9659 H       1  UNL1        0.1452
     14 H         141.0684  145.1985  158.1889 H       1  UNL1        0.1452
     15 N         140.2294  145.3315  164.1979 N.pl3   1  UNL1       -0.3195
     16 H         140.3715  146.2084  164.6224 H       1  UNL1        0.1481
     17 C         139.2766  144.3477  164.8097 C.3     1  UNL1        0.0729
     18 C         139.6918  143.5475  166.0085 C.3     1  UNL1        0.0196
     19 C         140.9388  141.3760  166.7012 C.3     1  UNL1        0.0001
     20 C         139.8800  142.0639  165.8914 C.3     1  UNL1        0.0017
     21 C         137.9085  144.1641  164.2225 C.3     1  UNL1        0.0512
     22 C         137.7053  143.2195  163.0753 C.3     1  UNL1        0.1389
     23 O         137.8176  143.7174  161.6648 O.3     1  UNL1       -0.3819
     24 H         137.1013  144.3465  161.4860 H       1  UNL1        0.2104
@<TRIPOS>BOND
     1    19    20    1
     2    20    18    1
     3    17    18    1
     4    17    21    1
     5    21    22    1
     6    22    23    1
     7    17    15    1
     8    15     1    1
     9     1     2   ar
    10     2     3   ar
    11     3     4    1
    12     3     5   ar
    13     5     6   ar
    14     6     7   ar
    15     7     8   ar
    16     8     9    1
    17     8    10   ar
    18    10    11   ar
    19    11    12   ar
    20    12     1   ar
    21    12     6   ar
    22    23    24    1
    23    15    16    1
    24     4    13    1
    25     4    14    1
@<TRIPOS>MOLECULE
*****
 24 25 0 0 0
SMALL
GASTEIGER

@<TRIPOS>ATOM
      1 C         141.2458  142.2881  165.6201 C.ar    1  UNL1        0.1327
      2 N         142.3192  142.7093  166.5795 N.ar    1  UNL1       -0.1993
      3 C         142.3870  142.0947  167.9461 C.ar    1  UNL1        0.2148
      4 N         143.4605  142.5159  168.9055 N.pl3   1  UNL1       -0.3274
      5 N         141.3814  141.0590  168.3534 N.ar    1  UNL1       -0.2138
      6 C         140.3079  140.6378  167.3941 C.ar    1  UNL1        0.0891
      7 C         139.3023  139.6020  167.8014 C.ar    1  UNL1        0.0489
      8 C         138.2289  139.1809  166.8421 C.ar    1  UNL1        0.1416
      9 F         137.2232  138.1451  167.2494 F       1  UNL1       -0.2041
     10 C         138.1611  139.7954  165.4754 C.ar    1  UNL1        0.0298
     11 C         139.1667  140.8311  165.0681 C.ar    1  UNL1        0.0066
     12 C         140.2401  141.2523  166.0274 C.ar    1  UNL1        0.0493
     13 H         144.1205  143.1957  168.6381 H       1  UNL1        0.1452
     14 H         143.5050  142.1126  169.8025 H       1  UNL1        0.1452
     15 N         141.1780  142.9026  164.2535 N.pl3   1  UNL1       -0.3195
     16 H         141.3653  142.3545  163.4574 H       1  UNL1        0.1481
     17 C         140.8250  144.3523  164.0997 C.3     1  UNL1        0.0729
     18 C         139.5343  144.8733  164.6588 C.3     1  UNL1        0.0196
     19 C         137.7385  144.0166  162.9881 C.3     1  UNL1        0.0001
     20 C         138.2519  144.1423  164.3919 C.3     1  UNL1        0.0017
     21 C         141.7627  145.2811  163.3868 C.3     1  UNL1        0.0512
     22 C         143.2329  144.9854  163.3572 C.3     1  UNL1        0.1389
     23 O         143.8912  144.3360  164.5382 O.3     1  UNL1       -0.3819
     24 H         143.8623  144.9397  165.2969 H       1  UNL1        0.2104
@<TRIPOS>BOND
     1    19    20    1
     2    20    18    1
     3    17    18    1
     4    17    21    1
     5    21    22    1
     6    22    23    1
     7    17    15    1
     8    15     1    1
     9     1     2   ar
    10     2     3   ar
    11     3     4    1
    12     3     5   ar
    13     5     6   ar
    14     6     7   ar
    15     7     8   ar
    16     8     9    1
    17     8    10   ar
    18    10    11   ar
    19    11    12   ar
    20    12     1   ar
    21    12     6   ar
    22    23    24    1
    23    15    16    1
    24     4    13    1
    25     4    14    1
@<TRIPOS>MOLECULE
*****
 24 25 0 0 0
SMALL
GASTEIGER

@<TRIPOS>ATOM
      1 C         139.3680  143.0603  164.6262 C.ar    1  UNL1        0.1327
      2 N         138.5436  142.5275  163.4920 N.ar    1  UNL1       -0.1993
      3 C         137.9987  141.1312  163.5521 C.ar    1  UNL1        0.2148
      4 N         137.1743  140.5984  162.4178 N.pl3   1  UNL1       -0.3274
      5 N         138.2783  140.2678  164.7464 N.ar    1  UNL1       -0.2138
      6 C         139.1027  140.8007  165.8806 C.ar    1  UNL1        0.0891
      7 C         139.3823  139.9372  167.0749 C.ar    1  UNL1        0.0489
      8 C         140.2067  140.4701  168.2091 C.ar    1  UNL1        0.1416
      9 F         140.4863  139.6067  169.4034 F       1  UNL1       -0.2041
     10 C         140.7515  141.8663  168.1490 C.ar    1  UNL1        0.0298
     11 C         140.4719  142.7298  166.9547 C.ar    1  UNL1        0.0066
     12 C         139.6476  142.1969  165.8205 C.ar    1  UNL1        0.0493
     13 H         136.9908  141.1651  161.6340 H       1  UNL1        0.1452
     14 H         136.8167  139.6820  162.4572 H       1  UNL1        0.1452
     15 N         139.9128  144.4566  164.5661 N.pl3   1  UNL1       -0.3195
     16 H         139.4854  145.1746  165.0868 H       1  UNL1        0.1481
     17 C         141.1087  144.7590  163.7127 C.3     1  UNL1        0.0729
     18 C         142.4793  144.3605  164.1740 C.3     1  UNL1        0.0196
     19 C         144.3951  143.9373  162.4708 C.3     1  UNL1        0.0001
     20 C         143.6903  144.8461  163.4339 C.3     1  UNL1        0.0017
     21 C         140.9341  145.4598  162.3980 C.3     1  UNL1        0.0512
     22 C         139.6041  146.0497  162.0334 C.3     1  UNL1        0.1389
     23 O         138.3582  145.2235  162.1560 O.3     1  UNL1       -0.3819
     24 H         138.3914  144.4921  161.5196 H       1  UNL1        0.2104
@<TRIPOS>BOND
     1    19    20    1
     2    20    18    1
     3    17    18    1
     4    17    21    1
     5    21    22    1
     6    22    23    1
     7    17    15    1
     8    15     1    1
     9     1     2   ar
    10     2     3   ar
    11     3     4    1
    12     3     5   ar
    13     5     6   ar
    14     6     7   ar
    15     7     8   ar
    16     8     9    1
    17     8    10   ar
    18    10    11   ar
    19    11    12   ar
    20    12     1   ar
    21    12     6   ar
    22    23    24    1
    23    15    16    1
    24     4    13    1
    25     4    14    1
