@<TRIPOS>MOLECULE
*****
 36 39 0 0 0
SMALL
GASTEIGER

@<TRIPOS>ATOM
      1 C         140.1093  138.4156  160.2094 C.3     1  UNL1        0.1700
      2 O         140.0417  138.6443  158.7285 O.3     1  UNL1       -0.3793
      3 H         139.1199  138.7933  158.4660 H       1  UNL1        0.2106
      4 C         138.8542  138.4429  161.0305 C.3     1  UNL1        0.2358
      5 O         138.2104  139.7537  161.3730 O.3     1  UNL1       -0.4714
      6 C         138.5297  141.8535  162.8692 C.ar    1  UNL1        0.0861
      7 C         138.7449  142.4638  164.2225 C.ar    1  UNL1        0.0209
      8 C         138.8560  141.5846  165.4327 C.ar    1  UNL1        0.0381
      9 C         138.7519  140.0951  165.2897 C.ar    1  UNL1        0.1368
     10 O         138.8630  139.2159  166.4998 O.3     1  UNL1       -0.5054
     11 C         138.5367  139.4848  163.9365 C.ar    1  UNL1        0.0747
     12 C         138.4256  140.3640  162.7262 C.ar    1  UNL1        0.1550
     13 H         138.9974  139.5971  167.3452 H       1  UNL1        0.2922
     14 C         140.6996  145.1430  159.4824 C.3     1  UNL1        0.1122
     15 N         139.5036  144.3775  159.9656 N.am    1  UNL1       -0.2869
     16 C         139.6146  143.4983  161.1758 C.2     1  UNL1        0.3046
     17 O         140.9218  143.3846  161.9027 O.2     1  UNL1       -0.2525
     18 N         138.4186  142.7328  161.6590 N.am    1  UNL1       -0.2658
     19 H         138.6457  144.4521  159.4885 H       1  UNL1        0.1510
     20 H         137.5607  142.8074  161.1819 H       1  UNL1        0.1565
     21 C         141.4318  138.1597  160.8692 C.3     1  UNL1        0.1056
     22 N         141.6783  138.6431  162.2677 N.3     1  UNL1       -0.2703
     23 C         141.6119  137.6809  163.4164 C.3     1  UNL1        0.0758
     24 C         141.8584  138.1643  164.8148 C.3     1  UNL1        0.0577
     25 C         142.1714  139.6099  165.0644 C.3     1  UNL1        0.1399
     26 C         142.2378  140.5721  163.9156 C.3     1  UNL1        0.0577
     27 C         141.9913  140.0887  162.5173 C.3     1  UNL1        0.0758
     28 C         142.4935  141.0187  165.4664 C.3     1  UNL1        0.0695
     29 C         142.6603  141.0488  166.9569 C.ar    1  UNL1        0.0161
     30 C         142.9833  142.1625  167.9083 C.ar    1  UNL1        0.0102
     31 C         143.0873  141.8861  169.3790 C.ar    1  UNL1        0.0576
     32 CL        143.4103  142.9997  170.3304 Cl      1  UNL1       -0.0823
     33 C         142.8683  140.4960  169.8981 C.ar    1  UNL1        0.0145
     34 C         142.5452  139.3822  168.9466 C.ar    1  UNL1        0.0374
     35 C         142.4412  139.6586  167.4760 C.ar    1  UNL1        0.1343
     36 O         142.1391  138.7693  166.3065 O.3     1  UNL1       -0.4825
@<TRIPOS>BOND
     1    14    15    1
     2    15    16   am
     3    16    17    2
     4    16    18   am
     5    18     6    1
     6     6     7   ar
     7     7     8   ar
     8     8     9   ar
     9     9    10    1
    10     9    11   ar
    11    11    12   ar
    12    12     5    1
    13     5     4    1
    14     4     1    1
    15     1     2    1
    16     1    21    1
    17    21    22    1
    18    22    23    1
    19    23    24    1
    20    24    25    1
    21    25    26    1
    22    26    27    1
    23    25    28    1
    24    28    29    1
    25    29    30   ar
    26    30    31   ar
    27    31    32    1
    28    31    33   ar
    29    33    34   ar
    30    34    35   ar
    31    35    36    1
    32    12     6   ar
    33    27    22    1
    34    35    29   ar
    35    36    25    1
    36    15    19    1
    37    18    20    1
    38    10    13    1
    39     2     3    1
@<TRIPOS>MOLECULE
*****
 36 39 0 0 0
SMALL
GASTEIGER

@<TRIPOS>ATOM
      1 C         138.3118  140.7452  159.3599 C.3     1  UNL1        0.1700
      2 O         137.5150  140.7332  158.0891 O.3     1  UNL1       -0.3793
      3 H         137.5302  141.6170  157.6895 H       1  UNL1        0.2106
      4 C         138.9757  142.0103  159.8169 C.3     1  UNL1        0.2358
      5 O         138.2984  142.8910  160.8247 O.3     1  UNL1       -0.4714
      6 C         139.8531  144.8470  161.5366 C.ar    1  UNL1        0.0861
      7 C         140.6641  145.5453  162.5877 C.ar    1  UNL1        0.0209
      8 C         140.7313  144.9859  163.9778 C.ar    1  UNL1        0.0381
      9 C         139.9874  143.7283  164.3169 C.ar    1  UNL1        0.1368
     10 O         140.0546  143.1689  165.7071 O.3     1  UNL1       -0.5054
     11 C         139.1765  143.0300  163.2659 C.ar    1  UNL1        0.0747
     12 C         139.1093  143.5893  161.8757 C.ar    1  UNL1        0.1550
     13 H         140.5612  143.6051  166.3637 H       1  UNL1        0.2922
     14 C         142.0787  145.7115  156.9215 C.3     1  UNL1        0.1122
     15 N         140.8988  145.8386  157.8389 N.am    1  UNL1       -0.2869
     16 C         140.9659  145.2793  159.2290 C.2     1  UNL1        0.3046
     17 O         142.2130  144.5928  159.7018 O.2     1  UNL1       -0.2525
     18 N         139.7860  145.4064  160.1464 N.am    1  UNL1       -0.2658
     19 H         140.0803  146.2892  157.5286 H       1  UNL1        0.1510
     20 H         138.9675  145.8569  159.8361 H       1  UNL1        0.1565
     21 C         138.4446  139.4923  160.1737 C.3     1  UNL1        0.1056
     22 N         138.8987  139.5697  161.6013 N.3     1  UNL1       -0.2703
     23 C         140.3638  139.5790  161.9228 C.3     1  UNL1        0.0758
     24 C         140.8179  139.6564  163.3503 C.3     1  UNL1        0.0577
     25 C         139.8068  139.7247  164.4563 C.3     1  UNL1        0.1399
     26 C         138.3418  139.7155  164.1348 C.3     1  UNL1        0.0577
     27 C         137.8877  139.6380  162.7073 C.3     1  UNL1        0.0758
     28 C         138.9172  139.7978  165.6618 C.3     1  UNL1        0.0695
     29 C         139.7909  139.8610  166.8795 C.ar    1  UNL1        0.0161
     30 C         139.4693  139.9451  168.3422 C.ar    1  UNL1        0.0102
     31 C         140.5774  139.9952  169.3520 C.ar    1  UNL1        0.0576
     32 CL        140.2559  140.0793  170.8147 Cl      1  UNL1       -0.0823
     33 C         142.0069  139.9611  168.8992 C.ar    1  UNL1        0.0145
     34 C         142.3285  139.8769  167.4364 C.ar    1  UNL1        0.0374
     35 C         141.2205  139.8269  166.4266 C.ar    1  UNL1        0.1343
     36 O         141.2304  139.7427  164.9290 O.3     1  UNL1       -0.4825
@<TRIPOS>BOND
     1    14    15    1
     2    15    16   am
     3    16    17    2
     4    16    18   am
     5    18     6    1
     6     6     7   ar
     7     7     8   ar
     8     8     9   ar
     9     9    10    1
    10     9    11   ar
    11    11    12   ar
    12    12     5    1
    13     5     4    1
    14     4     1    1
    15     1     2    1
    16     1    21    1
    17    21    22    1
    18    22    23    1
    19    23    24    1
    20    24    25    1
    21    25    26    1
    22    26    27    1
    23    25    28    1
    24    28    29    1
    25    29    30   ar
    26    30    31   ar
    27    31    32    1
    28    31    33   ar
    29    33    34   ar
    30    34    35   ar
    31    35    36    1
    32    12     6   ar
    33    27    22    1
    34    35    29   ar
    35    36    25    1
    36    15    19    1
    37    18    20    1
    38    10    13    1
    39     2     3    1
@<TRIPOS>MOLECULE
*****
 36 39 0 0 0
SMALL
GASTEIGER

@<TRIPOS>ATOM
      1 C         138.0758  140.3214  160.6623 C.3     1  UNL1        0.1700
      2 O         136.6216  139.9879  160.5071 O.3     1  UNL1       -0.3793
      3 H         136.2000  140.6416  159.9275 H       1  UNL1        0.2106
      4 C         138.6494  141.5187  159.9641 C.3     1  UNL1        0.2358
      5 O         138.2747  142.8999  160.4135 O.3     1  UNL1       -0.4714
      6 C         140.2129  143.7837  161.9008 C.ar    1  UNL1        0.0861
      7 C         140.7060  144.3031  163.2188 C.ar    1  UNL1        0.0209
      8 C         139.7539  144.4580  164.3675 C.ar    1  UNL1        0.0381
      9 C         138.3087  144.0936  164.1982 C.ar    1  UNL1        0.1368
     10 O         137.3566  144.2485  165.3468 O.3     1  UNL1       -0.5054
     11 C         137.8157  143.5742  162.8802 C.ar    1  UNL1        0.0747
     12 C         138.7678  143.4192  161.7314 C.ar    1  UNL1        0.1550
     13 H         137.6646  144.5730  166.1701 H       1  UNL1        0.2922
     14 C         142.2396  145.5724  157.4631 C.3     1  UNL1        0.1122
     15 N         142.1784  144.5231  158.5333 N.am    1  UNL1       -0.2869
     16 C         141.2263  144.6780  159.6819 C.2     1  UNL1        0.3046
     17 O         140.3354  145.8822  159.7604 O.2     1  UNL1       -0.2525
     18 N         141.1650  143.6288  160.7521 N.am    1  UNL1       -0.2658
     19 H         142.7631  143.7327  158.4818 H       1  UNL1        0.1510
     20 H         141.7498  142.8384  160.7006 H       1  UNL1        0.1565
     21 C         138.9564  139.4575  161.5157 C.3     1  UNL1        0.1056
     22 N         139.4476  139.9637  162.8395 N.3     1  UNL1       -0.2703
     23 C         138.4819  140.1706  163.9685 C.3     1  UNL1        0.0758
     24 C         138.9731  140.6768  165.2923 C.3     1  UNL1        0.0577
     25 C         140.4300  140.9760  165.4871 C.3     1  UNL1        0.1399
     26 C         141.3957  140.7691  164.3582 C.3     1  UNL1        0.0577
     27 C         140.9045  140.2630  163.0344 C.3     1  UNL1        0.0758
     28 C         141.8503  141.3167  165.8289 C.3     1  UNL1        0.0695
     29 C         141.8853  141.7816  167.2547 C.ar    1  UNL1        0.0161
     30 C         143.0100  142.2466  168.1315 C.ar    1  UNL1        0.0102
     31 C         142.7360  142.6583  169.5476 C.ar    1  UNL1        0.0576
     32 CL        143.8607  143.1233  170.4244 Cl      1  UNL1       -0.0823
     33 C         141.3374  142.6050  170.0870 C.ar    1  UNL1        0.0145
     34 C         140.2126  142.1400  169.2102 C.ar    1  UNL1        0.0374
     35 C         140.4866  141.7283  167.7940 C.ar    1  UNL1        0.1343
     36 O         139.5872  141.2304  166.7017 O.3     1  UNL1       -0.4825
@<TRIPOS>BOND
     1    14    15    1
     2    15    16   am
     3    16    17    2
     4    16    18   am
     5    18     6    1
     6     6     7   ar
     7     7     8   ar
     8     8     9   ar
     9     9    10    1
    10     9    11   ar
    11    11    12   ar
    12    12     5    1
    13     5     4    1
    14     4     1    1
    15     1     2    1
    16     1    21    1
    17    21    22    1
    18    22    23    1
    19    23    24    1
    20    24    25    1
    21    25    26    1
    22    26    27    1
    23    25    28    1
    24    28    29    1
    25    29    30   ar
    26    30    31   ar
    27    31    32    1
    28    31    33   ar
    29    33    34   ar
    30    34    35   ar
    31    35    36    1
    32    12     6   ar
    33    27    22    1
    34    35    29   ar
    35    36    25    1
    36    15    19    1
    37    18    20    1
    38    10    13    1
    39     2     3    1
@<TRIPOS>MOLECULE
*****
 36 39 0 0 0
SMALL
GASTEIGER

@<TRIPOS>ATOM
      1 C         141.3447  143.8447  159.9984 C.3     1  UNL1        0.1700
      2 O         141.6051  145.3217  160.0223 O.3     1  UNL1       -0.3793
      3 H         140.9826  145.7694  159.4281 H       1  UNL1        0.2106
      4 C         140.2506  143.2899  159.1351 C.3     1  UNL1        0.2358
      5 O         138.8229  143.3737  159.5875 O.3     1  UNL1       -0.4714
      6 C         138.0006  141.1955  160.7405 C.ar    1  UNL1        0.0861
      7 C         137.5610  140.4654  161.9749 C.ar    1  UNL1        0.0209
      8 C         137.5039  141.1834  163.2906 C.ar    1  UNL1        0.0381
      9 C         137.8866  142.6315  163.3720 C.ar    1  UNL1        0.1368
     10 O         137.8296  143.3495  164.6877 O.3     1  UNL1       -0.5054
     11 C         138.3262  143.3616  162.1377 C.ar    1  UNL1        0.0747
     12 C         138.3833  142.6436  160.8219 C.ar    1  UNL1        0.1550
     13 H         137.5549  142.8934  165.4588 H       1  UNL1        0.2922
     14 C         140.4714  138.0252  157.4475 C.3     1  UNL1        0.1122
     15 N         139.2930  138.8923  157.7782 N.am    1  UNL1       -0.2869
     16 C         139.2360  139.6103  159.0940 C.2     1  UNL1        0.3046
     17 O         140.3574  139.4612  160.0789 O.2     1  UNL1       -0.2525
     18 N         138.0576  140.4775  159.4247 N.am    1  UNL1       -0.2658
     19 H         138.5570  138.9902  157.1318 H       1  UNL1        0.1510
     20 H         137.3216  140.5754  158.7782 H       1  UNL1        0.1565
     21 C         142.1785  142.9225  160.8376 C.3     1  UNL1        0.1056
     22 N         141.8169  142.6825  162.2735 N.3     1  UNL1       -0.2703
     23 C         141.8231  143.8218  163.2491 C.3     1  UNL1        0.0758
     24 C         141.4616  143.5818  164.6849 C.3     1  UNL1        0.0577
     25 C         141.0938  142.2023  165.1452 C.3     1  UNL1        0.1399
     26 C         141.0876  141.0629  164.1696 C.3     1  UNL1        0.0577
     27 C         141.4491  141.3030  162.7338 C.3     1  UNL1        0.0758
     28 C         140.7066  140.8847  165.7484 C.3     1  UNL1        0.0695
     29 C         140.4295  141.1058  167.2060 C.ar    1  UNL1        0.0161
     30 C         140.0084  140.1708  168.3008 C.ar    1  UNL1        0.0102
     31 C         139.8033  140.6900  169.6930 C.ar    1  UNL1        0.0576
     32 CL        139.3822  139.7550  170.7877 Cl      1  UNL1       -0.0823
     33 C         140.0192  142.1442  169.9905 C.ar    1  UNL1        0.0145
     34 C         140.4403  143.0793  168.8958 C.ar    1  UNL1        0.0374
     35 C         140.6454  142.5601  167.5035 C.ar    1  UNL1        0.1343
     36 O         141.0560  143.2378  166.2299 O.3     1  UNL1       -0.4825
@<TRIPOS>BOND
     1    14    15    1
     2    15    16   am
     3    16    17    2
     4    16    18   am
     5    18     6    1
     6     6     7   ar
     7     7     8   ar
     8     8     9   ar
     9     9    10    1
    10     9    11   ar
    11    11    12   ar
    12    12     5    1
    13     5     4    1
    14     4     1    1
    15     1     2    1
    16     1    21    1
    17    21    22    1
    18    22    23    1
    19    23    24    1
    20    24    25    1
    21    25    26    1
    22    26    27    1
    23    25    28    1
    24    28    29    1
    25    29    30   ar
    26    30    31   ar
    27    31    32    1
    28    31    33   ar
    29    33    34   ar
    30    34    35   ar
    31    35    36    1
    32    12     6   ar
    33    27    22    1
    34    35    29   ar
    35    36    25    1
    36    15    19    1
    37    18    20    1
    38    10    13    1
    39     2     3    1
@<TRIPOS>MOLECULE
*****
 36 39 0 0 0
SMALL
GASTEIGER

@<TRIPOS>ATOM
      1 C         138.0842  140.4048  160.1531 C.3     1  UNL1        0.1700
      2 O         138.1785  140.0029  158.7111 O.3     1  UNL1       -0.3793
      3 H         138.2926  140.7942  158.1617 H       1  UNL1        0.2106
      4 C         138.1702  141.8528  160.5354 C.3     1  UNL1        0.2358
      5 O         139.5088  142.4904  160.7620 O.3     1  UNL1       -0.4714
      6 C         141.2975  142.5080  162.6462 C.ar    1  UNL1        0.0861
      7 C         141.7196  142.8931  164.0332 C.ar    1  UNL1        0.0209
      8 C         140.7751  143.6458  164.9227 C.ar    1  UNL1        0.0381
      9 C         139.4085  144.0133  164.4254 C.ar    1  UNL1        0.1368
     10 O         138.4640  144.7660  165.3150 O.3     1  UNL1       -0.5054
     11 C         138.9864  143.6282  163.0385 C.ar    1  UNL1        0.0747
     12 C         139.9309  142.8755  162.1489 C.ar    1  UNL1        0.1550
     13 H         138.7276  145.0066  166.1813 H       1  UNL1        0.2922
     14 C         144.7875  142.4693  158.7968 C.3     1  UNL1        0.1122
     15 N         143.9870  141.7360  159.8319 N.am    1  UNL1       -0.2869
     16 C         143.0425  142.4886  160.7215 C.2     1  UNL1        0.3046
     17 O         142.8985  143.9745  160.5759 O.2     1  UNL1       -0.2525
     18 N         142.2420  141.7554  161.7566 N.am    1  UNL1       -0.2658
     19 H         144.0816  140.7607  159.9274 H       1  UNL1        0.1510
     20 H         142.3366  140.7801  161.8522 H       1  UNL1        0.1565
     21 C         137.9038  139.3588  161.2130 C.3     1  UNL1        0.1056
     22 N         138.5578  139.5276  162.5524 N.3     1  UNL1       -0.2703
     23 C         139.9485  139.0129  162.7781 C.3     1  UNL1        0.0758
     24 C         140.6025  139.1817  164.1174 C.3     1  UNL1        0.0577
     25 C         139.8657  139.8652  165.2310 C.3     1  UNL1        0.1399
     26 C         138.4750  140.3798  165.0053 C.3     1  UNL1        0.0577
     27 C         137.8210  140.2110  163.6659 C.3     1  UNL1        0.0758
     28 C         139.2563  140.5240  166.4329 C.3     1  UNL1        0.0695
     29 C         140.2579  140.4708  167.5484 C.ar    1  UNL1        0.0161
     30 C         140.2101  140.9628  168.9646 C.ar    1  UNL1        0.0102
     31 C         141.3906  140.7631  169.8682 C.ar    1  UNL1        0.0576
     32 CL        141.3428  141.2552  171.2844 Cl      1  UNL1       -0.0823
     33 C         142.6189  140.0714  169.3557 C.ar    1  UNL1        0.0145
     34 C         142.6667  139.5794  167.9394 C.ar    1  UNL1        0.0374
     35 C         141.4862  139.7790  167.0358 C.ar    1  UNL1        0.1343
     36 O         141.2439  139.4048  165.6036 O.3     1  UNL1       -0.4825
@<TRIPOS>BOND
     1    14    15    1
     2    15    16   am
     3    16    17    2
     4    16    18   am
     5    18     6    1
     6     6     7   ar
     7     7     8   ar
     8     8     9   ar
     9     9    10    1
    10     9    11   ar
    11    11    12   ar
    12    12     5    1
    13     5     4    1
    14     4     1    1
    15     1     2    1
    16     1    21    1
    17    21    22    1
    18    22    23    1
    19    23    24    1
    20    24    25    1
    21    25    26    1
    22    26    27    1
    23    25    28    1
    24    28    29    1
    25    29    30   ar
    26    30    31   ar
    27    31    32    1
    28    31    33   ar
    29    33    34   ar
    30    34    35   ar
    31    35    36    1
    32    12     6   ar
    33    27    22    1
    34    35    29   ar
    35    36    25    1
    36    15    19    1
    37    18    20    1
    38    10    13    1
    39     2     3    1
@<TRIPOS>MOLECULE
*****
 36 39 0 0 0
SMALL
GASTEIGER

@<TRIPOS>ATOM
      1 C         140.7671  145.0506  160.2442 C.3     1  UNL1        0.1700
      2 O         141.8737  145.6681  159.4416 O.3     1  UNL1       -0.3793
      3 H         141.9455  145.2143  158.5873 H       1  UNL1        0.2106
      4 C         139.9770  143.9082  159.6777 C.3     1  UNL1        0.2358
      5 O         140.4808  142.5029  159.8231 O.3     1  UNL1       -0.4714
      6 C         140.4384  140.2296  161.0802 C.ar    1  UNL1        0.0861
      7 C         139.7802  139.2936  162.0501 C.ar    1  UNL1        0.0209
      8 C         138.5063  139.6949  162.7328 C.ar    1  UNL1        0.0381
      9 C         137.8905  141.0321  162.4456 C.ar    1  UNL1        0.1368
     10 O         136.6166  141.4334  163.1282 O.3     1  UNL1       -0.5054
     11 C         138.5487  141.9682  161.4757 C.ar    1  UNL1        0.0747
     12 C         139.8226  141.5669  160.7930 C.ar    1  UNL1        0.1550
     13 H         136.2055  140.8487  163.7341 H       1  UNL1        0.2922
     14 C         142.8965  137.6735  157.2823 C.3     1  UNL1        0.1122
     15 N         142.9414  138.5503  158.4986 N.am    1  UNL1       -0.2869
     16 C         141.6675  138.9516  159.1812 C.2     1  UNL1        0.3046
     17 O         140.3487  138.4761  158.6476 O.2     1  UNL1       -0.2525
     18 N         141.7123  139.8283  160.3975 N.am    1  UNL1       -0.2658
     19 H         143.8069  138.8623  158.8488 H       1  UNL1        0.1510
     20 H         142.5779  140.1404  160.7477 H       1  UNL1        0.1565
     21 C         140.4505  145.5755  161.6132 C.3     1  UNL1        0.1056
     22 N         140.6225  144.6922  162.8134 N.3     1  UNL1       -0.2703
     23 C         141.7923  143.7568  162.8947 C.3     1  UNL1        0.0758
     24 C         141.9642  142.8736  164.0948 C.3     1  UNL1        0.0577
     25 C         140.9664  142.9258  165.2136 C.3     1  UNL1        0.1399
     26 C         139.7966  143.8611  165.1322 C.3     1  UNL1        0.0577
     27 C         139.6247  144.7443  163.9321 C.3     1  UNL1        0.0758
     28 C         140.0550  142.8679  166.4036 C.3     1  UNL1        0.0695
     29 C         140.6053  141.8516  167.3600 C.ar    1  UNL1        0.0161
     30 C         140.1285  141.3718  168.6987 C.ar    1  UNL1        0.0102
     31 C         140.9031  140.3218  169.4386 C.ar    1  UNL1        0.0576
     32 CL        140.4263  139.8420  170.7774 Cl      1  UNL1       -0.0823
     33 C         142.1546  139.7517  168.8397 C.ar    1  UNL1        0.0145
     34 C         142.6315  140.2315  167.5009 C.ar    1  UNL1        0.0374
     35 C         141.8568  141.2815  166.7610 C.ar    1  UNL1        0.1343
     36 O         142.0800  141.9453  165.4345 O.3     1  UNL1       -0.4825
@<TRIPOS>BOND
     1    14    15    1
     2    15    16   am
     3    16    17    2
     4    16    18   am
     5    18     6    1
     6     6     7   ar
     7     7     8   ar
     8     8     9   ar
     9     9    10    1
    10     9    11   ar
    11    11    12   ar
    12    12     5    1
    13     5     4    1
    14     4     1    1
    15     1     2    1
    16     1    21    1
    17    21    22    1
    18    22    23    1
    19    23    24    1
    20    24    25    1
    21    25    26    1
    22    26    27    1
    23    25    28    1
    24    28    29    1
    25    29    30   ar
    26    30    31   ar
    27    31    32    1
    28    31    33   ar
    29    33    34   ar
    30    34    35   ar
    31    35    36    1
    32    12     6   ar
    33    27    22    1
    34    35    29   ar
    35    36    25    1
    36    15    19    1
    37    18    20    1
    38    10    13    1
    39     2     3    1
@<TRIPOS>MOLECULE
*****
 36 39 0 0 0
SMALL
GASTEIGER

@<TRIPOS>ATOM
      1 C         137.9801  138.9846  160.9687 C.3     1  UNL1        0.1700
      2 O         136.6178  139.4980  160.6072 O.3     1  UNL1       -0.3793
      3 H         136.6552  139.9315  159.7403 H       1  UNL1        0.2106
      4 C         139.1315  139.1865  160.0287 C.3     1  UNL1        0.2358
      5 O         139.9253  140.4582  160.0774 O.3     1  UNL1       -0.4714
      6 C         141.3310  141.5998  161.9405 C.ar    1  UNL1        0.0861
      7 C         142.5830  141.6713  162.7636 C.ar    1  UNL1        0.0209
      8 C         143.6811  140.6727  162.5469 C.ar    1  UNL1        0.0381
      9 C         143.5273  139.6027  161.5070 C.ar    1  UNL1        0.1368
     10 O         144.6254  138.6041  161.2903 O.3     1  UNL1       -0.5054
     11 C         142.2754  139.5312  160.6839 C.ar    1  UNL1        0.0747
     12 C         141.1772  140.5297  160.9006 C.ar    1  UNL1        0.1550
     13 H         145.4074  138.6488  161.8045 H       1  UNL1        0.2922
     14 C         139.5202  146.4541  161.5446 C.3     1  UNL1        0.1122
     15 N         139.3275  145.0255  161.9593 N.am    1  UNL1       -0.2869
     16 C         140.4256  144.0269  161.7425 C.2     1  UNL1        0.3046
     17 O         141.7164  144.4570  161.1111 O.2     1  UNL1       -0.2525
     18 N         140.2329  142.5983  162.1572 N.am    1  UNL1       -0.2658
     19 H         138.4802  144.7432  162.3737 H       1  UNL1        0.1510
     20 H         139.3856  142.3161  162.5716 H       1  UNL1        0.1565
     21 C         138.1910  138.2692  162.2701 C.3     1  UNL1        0.1056
     22 N         138.8646  138.9717  163.4116 N.3     1  UNL1       -0.2703
     23 C         138.1324  140.0353  164.1747 C.3     1  UNL1        0.0758
     24 C         138.8060  140.7378  165.3161 C.3     1  UNL1        0.0577
     25 C         140.2119  140.3766  165.6943 C.3     1  UNL1        0.1399
     26 C         140.9442  139.3129  164.9311 C.3     1  UNL1        0.0577
     27 C         140.2705  138.6105  163.7897 C.3     1  UNL1        0.0758
     28 C         141.6066  140.1239  166.1853 C.3     1  UNL1        0.0695
     29 C         141.8658  141.0463  167.3396 C.ar    1  UNL1        0.0161
     30 C         143.0664  141.2433  168.2169 C.ar    1  UNL1        0.0102
     31 C         143.0326  142.2629  169.3165 C.ar    1  UNL1        0.0576
     32 CL        144.2332  142.4600  170.1938 Cl      1  UNL1       -0.0823
     33 C         141.7982  143.0856  169.5388 C.ar    1  UNL1        0.0145
     34 C         140.5975  142.8886  168.6615 C.ar    1  UNL1        0.0374
     35 C         140.6313  141.8689  167.5619 C.ar    1  UNL1        0.1343
     36 O         139.6092  141.4550  166.5451 O.3     1  UNL1       -0.4825
@<TRIPOS>BOND
     1    14    15    1
     2    15    16   am
     3    16    17    2
     4    16    18   am
     5    18     6    1
     6     6     7   ar
     7     7     8   ar
     8     8     9   ar
     9     9    10    1
    10     9    11   ar
    11    11    12   ar
    12    12     5    1
    13     5     4    1
    14     4     1    1
    15     1     2    1
    16     1    21    1
    17    21    22    1
    18    22    23    1
    19    23    24    1
    20    24    25    1
    21    25    26    1
    22    26    27    1
    23    25    28    1
    24    28    29    1
    25    29    30   ar
    26    30    31   ar
    27    31    32    1
    28    31    33   ar
    29    33    34   ar
    30    34    35   ar
    31    35    36    1
    32    12     6   ar
    33    27    22    1
    34    35    29   ar
    35    36    25    1
    36    15    19    1
    37    18    20    1
    38    10    13    1
    39     2     3    1
@<TRIPOS>MOLECULE
*****
 36 39 0 0 0
SMALL
GASTEIGER

@<TRIPOS>ATOM
      1 C         141.2327  144.4121  160.5497 C.3     1  UNL1        0.1700
      2 O         141.9624  145.3832  159.6696 O.3     1  UNL1       -0.3793
      3 H         142.3339  144.9125  158.9071 H       1  UNL1        0.2106
      4 C         141.1722  142.9606  160.1762 C.3     1  UNL1        0.2358
      5 O         142.4326  142.2187  159.8430 O.3     1  UNL1       -0.4714
      6 C         142.6849  140.1135  161.3444 C.ar    1  UNL1        0.0861
      7 C         143.4186  139.3623  162.4157 C.ar    1  UNL1        0.0209
      8 C         144.6333  139.9652  163.0568 C.ar    1  UNL1        0.0381
      9 C         145.1144  141.3192  162.6266 C.ar    1  UNL1        0.1368
     10 O         146.3291  141.9221  163.2676 O.3     1  UNL1       -0.5054
     11 C         144.3809  142.0704  161.5553 C.ar    1  UNL1        0.0747
     12 C         143.1661  141.4675  160.9142 C.ar    1  UNL1        0.1550
     13 H         146.7874  141.4529  163.9368 H       1  UNL1        0.2922
     14 C         137.6414  138.8780  161.5338 C.3     1  UNL1        0.1122
     15 N         138.9485  138.8929  160.7981 N.am    1  UNL1       -0.2869
     16 C         140.1632  139.4957  161.4391 C.2     1  UNL1        0.3046
     17 O         140.0708  140.0838  162.8159 O.2     1  UNL1       -0.2525
     18 N         141.4702  139.5106  160.7034 N.am    1  UNL1       -0.2658
     19 H         139.0091  138.5069  159.8944 H       1  UNL1        0.1510
     20 H         141.5309  139.1247  159.7997 H       1  UNL1        0.1565
     21 C         140.5636  144.8925  161.8032 C.3     1  UNL1        0.1056
     22 N         140.7139  144.1167  163.0782 N.3     1  UNL1       -0.2703
     23 C         139.5063  143.5253  163.7431 C.3     1  UNL1        0.0758
     24 C         139.6566  142.7495  165.0180 C.3     1  UNL1        0.0577
     25 C         141.0145  142.5651  165.6281 C.3     1  UNL1        0.1399
     26 C         142.2220  143.1564  164.9633 C.3     1  UNL1        0.0577
     27 C         142.0717  143.9322  163.6883 C.3     1  UNL1        0.0758
     28 C         142.3011  142.2991  166.3519 C.3     1  UNL1        0.0695
     29 C         141.9863  141.4886  167.5743 C.ar    1  UNL1        0.0161
     30 C         142.8570  140.9342  168.6626 C.ar    1  UNL1        0.0102
     31 C         142.2466  140.1449  169.7826 C.ar    1  UNL1        0.0576
     32 CL        143.1173  139.5905  170.8709 Cl      1  UNL1       -0.0823
     33 C         140.7655  139.9099  169.8142 C.ar    1  UNL1        0.0145
     34 C         139.8947  140.4643  168.7259 C.ar    1  UNL1        0.0374
     35 C         140.5051  141.2537  167.6059 C.ar    1  UNL1        0.1343
     36 O         139.9045  141.9189  166.4031 O.3     1  UNL1       -0.4825
@<TRIPOS>BOND
     1    14    15    1
     2    15    16   am
     3    16    17    2
     4    16    18   am
     5    18     6    1
     6     6     7   ar
     7     7     8   ar
     8     8     9   ar
     9     9    10    1
    10     9    11   ar
    11    11    12   ar
    12    12     5    1
    13     5     4    1
    14     4     1    1
    15     1     2    1
    16     1    21    1
    17    21    22    1
    18    22    23    1
    19    23    24    1
    20    24    25    1
    21    25    26    1
    22    26    27    1
    23    25    28    1
    24    28    29    1
    25    29    30   ar
    26    30    31   ar
    27    31    32    1
    28    31    33   ar
    29    33    34   ar
    30    34    35   ar
    31    35    36    1
    32    12     6   ar
    33    27    22    1
    34    35    29   ar
    35    36    25    1
    36    15    19    1
    37    18    20    1
    38    10    13    1
    39     2     3    1
@<TRIPOS>MOLECULE
*****
 36 39 0 0 0
SMALL
GASTEIGER

@<TRIPOS>ATOM
      1 C         140.7539  145.0418  160.1296 C.3     1  UNL1        0.1700
      2 O         141.8869  145.8321  159.5450 O.3     1  UNL1       -0.3793
      3 H         142.1774  145.4174  158.7177 H       1  UNL1        0.2106
      4 C         140.2532  143.8155  159.4256 C.3     1  UNL1        0.2358
      5 O         138.8228  143.3920  159.5827 O.3     1  UNL1       -0.4714
      6 C         138.6582  140.8045  159.7495 C.ar    1  UNL1        0.0861
      7 C         138.3230  139.5722  160.5364 C.ar    1  UNL1        0.0209
      8 C         137.8173  139.6951  161.9431 C.ar    1  UNL1        0.0381
      9 C         137.6468  141.0503  162.5631 C.ar    1  UNL1        0.1368
     10 O         137.1411  141.1732  163.9699 O.3     1  UNL1       -0.5054
     11 C         137.9819  142.2825  161.7763 C.ar    1  UNL1        0.0747
     12 C         138.4877  142.1597  160.3695 C.ar    1  UNL1        0.1550
     13 H         136.9317  140.4034  164.4615 H       1  UNL1        0.2922
     14 C         137.7303  140.2859  154.6632 C.3     1  UNL1        0.1122
     15 N         138.6999  140.4223  155.7996 N.am    1  UNL1       -0.2869
     16 C         138.1942  140.5452  157.2064 C.2     1  UNL1        0.3046
     17 O         136.7189  140.5318  157.4768 O.2     1  UNL1       -0.2525
     18 N         139.1639  140.6816  158.3427 N.am    1  UNL1       -0.2658
     19 H         139.6683  140.4311  155.6220 H       1  UNL1        0.1510
     20 H         140.1322  140.6904  158.1651 H       1  UNL1        0.1565
     21 C         140.1216  145.4778  161.4180 C.3     1  UNL1        0.1056
     22 N         140.3743  144.7030  162.6774 N.3     1  UNL1       -0.2703
     23 C         141.5535  143.7802  162.7664 C.3     1  UNL1        0.0758
     24 C         141.8062  143.0055  164.0257 C.3     1  UNL1        0.0577
     25 C         140.8797  143.1535  165.1960 C.3     1  UNL1        0.1399
     26 C         139.7005  144.0762  165.1070 C.3     1  UNL1        0.0577
     27 C         139.4478  144.8510  163.8477 C.3     1  UNL1        0.0758
     28 C         140.0447  143.1983  166.4413 C.3     1  UNL1        0.0695
     29 C         140.6607  142.2703  167.4461 C.ar    1  UNL1        0.0161
     30 C         140.2717  141.9085  168.8489 C.ar    1  UNL1        0.0102
     31 C         141.0985  140.9284  169.6273 C.ar    1  UNL1        0.0576
     32 CL        140.7095  140.5666  171.0300 Cl      1  UNL1       -0.0823
     33 C         142.3142  140.3102  169.0030 C.ar    1  UNL1        0.0145
     34 C         142.7033  140.6721  167.6002 C.ar    1  UNL1        0.0374
     35 C         141.8765  141.6521  166.8218 C.ar    1  UNL1        0.1343
     36 O         142.0119  142.1979  165.4312 O.3     1  UNL1       -0.4825
@<TRIPOS>BOND
     1    14    15    1
     2    15    16   am
     3    16    17    2
     4    16    18   am
     5    18     6    1
     6     6     7   ar
     7     7     8   ar
     8     8     9   ar
     9     9    10    1
    10     9    11   ar
    11    11    12   ar
    12    12     5    1
    13     5     4    1
    14     4     1    1
    15     1     2    1
    16     1    21    1
    17    21    22    1
    18    22    23    1
    19    23    24    1
    20    24    25    1
    21    25    26    1
    22    26    27    1
    23    25    28    1
    24    28    29    1
    25    29    30   ar
    26    30    31   ar
    27    31    32    1
    28    31    33   ar
    29    33    34   ar
    30    34    35   ar
    31    35    36    1
    32    12     6   ar
    33    27    22    1
    34    35    29   ar
    35    36    25    1
    36    15    19    1
    37    18    20    1
    38    10    13    1
    39     2     3    1
