@<TRIPOS>MOLECULE
*****
 33 37 0 0 0
SMALL
GASTEIGER

@<TRIPOS>ATOM
      1 N         142.4801  138.5029  163.7942 N.3     1  UNL1       -0.2726
      2 C         143.6559  138.6959  162.8830 C.3     1  UNL1        0.0721
      3 C         144.3597  139.9548  163.2948 C.3     1  UNL1        0.0190
      4 C         143.6190  140.5399  164.4606 C.3     1  UNL1        0.0201
      5 C         144.5169  141.7285  164.6364 C.3     1  UNL1        0.0061
      6 C         143.3412  141.5355  165.5476 C.3     1  UNL1        0.0237
      7 C         142.4573  139.6426  164.7692 C.3     1  UNL1        0.0724
      8 C         142.5020  141.9989  166.7013 C.ar    1  UNL1       -0.0225
      9 C         143.1124  142.1386  168.0644 C.ar    1  UNL1       -0.0043
     10 C         142.2732  142.6020  169.2180 C.ar    1  UNL1        0.0035
     11 C         140.8236  142.9256  169.0087 C.ar    1  UNL1        0.0714
     12 C         140.2132  142.7859  167.6456 C.ar    1  UNL1        0.0035
     13 C         141.0524  142.3225  166.4919 C.ar    1  UNL1       -0.0043
     14 C         139.9844  143.3890  170.1623 C.3     1  UNL1        0.4186
     15 F         139.1451  143.8523  171.3161 F       1  UNL1       -0.1659
     16 F         140.6748  144.7203  170.1298 F       1  UNL1       -0.1659
     17 F         139.2940  142.0577  170.1948 F       1  UNL1       -0.1659
     18 C         141.4993  137.3693  163.7400 C.3     1  UNL1        0.0730
     19 C         140.0912  137.5725  164.2151 C.3     1  UNL1        0.0294
     20 C         138.9696  137.6579  163.2227 C.3     1  UNL1        0.0666
     21 S         139.1007  138.5404  162.0169 S.3     1  UNL1       -0.0756
     22 C         138.7847  142.4090  162.0025 C.ar    1  UNL1        0.2029
     23 N         137.4089  142.0074  162.4452 N.ar    1  UNL1       -0.1250
     24 N         137.3598  140.5093  162.5045 N.ar    1  UNL1       -0.1220
     25 C         138.7053  139.9851  162.0984 C.ar    1  UNL1        0.1933
     26 N         139.5859  141.1590  161.7882 N.ar    1  UNL1       -0.2860
     27 C         141.0166  141.0945  161.3420 C.3     1  UNL1        0.1341
     28 C         139.2392  144.6244  164.3552 C.3     1  UNL1        0.0556
     29 C         139.4823  144.8320  162.8897 C.ar    1  UNL1        0.1001
     30 N         139.9771  146.0945  162.2482 N.ar    1  UNL1       -0.2085
     31 C         140.0740  145.8564  160.7704 C.ar    1  UNL1        0.2849
     32 O         139.6391  144.4468  160.4985 O.2     1  UNL1       -0.4283
     33 C         139.2734  143.8138  161.8083 C.ar    1  UNL1        0.1964
@<TRIPOS>BOND
     1    28    29    1
     2    29    30   ar
     3    30    31   ar
     4    31    32   ar
     5    32    33   ar
     6    33    22    1
     7    22    23   ar
     8    23    24   ar
     9    24    25   ar
    10    25    21    1
    11    21    20    1
    12    20    19    1
    13    19    18    1
    14    18     1    1
    15     1     2    1
    16     2     3    1
    17     4     3    1
    18     4     5    1
    19     5     6    1
    20     6     8    1
    21     8     9   ar
    22     9    10   ar
    23    10    11   ar
    24    11    14    1
    25    14    15    1
    26    14    16    1
    27    14    17    1
    28    11    12   ar
    29    12    13   ar
    30     4     7    1
    31    25    26   ar
    32    26    27    1
    33    33    29   ar
    34    26    22   ar
    35     7     1    1
    36     6     4    1
    37    13     8   ar
@<TRIPOS>MOLECULE
*****
 33 37 0 0 0
SMALL
GASTEIGER

@<TRIPOS>ATOM
      1 N         143.0171  143.7210  163.5634 N.3     1  UNL1       -0.2726
      2 C         142.7467  145.1863  163.3906 C.3     1  UNL1        0.0721
      3 C         141.3492  145.4585  163.8627 C.3     1  UNL1        0.0190
      4 C         140.7560  144.1615  164.3273 C.3     1  UNL1        0.0201
      5 C         139.4243  144.7297  164.7194 C.3     1  UNL1        0.0061
      6 C         139.6947  143.2644  164.8922 C.3     1  UNL1        0.0237
      7 C         141.7868  143.0877  164.1423 C.3     1  UNL1        0.0724
      8 C         139.2382  141.9006  165.3181 C.ar    1  UNL1       -0.0225
      9 C         138.3515  141.0916  164.4184 C.ar    1  UNL1       -0.0043
     10 C         137.8949  139.7277  164.8443 C.ar    1  UNL1        0.0035
     11 C         138.3251  139.1729  166.1699 C.ar    1  UNL1        0.0714
     12 C         139.2117  139.9818  167.0695 C.ar    1  UNL1        0.0035
     13 C         139.6683  141.3457  166.6436 C.ar    1  UNL1       -0.0043
     14 C         137.8685  137.8090  166.5958 C.3     1  UNL1        0.4186
     15 F         137.4119  136.4451  167.0217 F       1  UNL1       -0.1659
     16 F         138.6450  137.1968  165.4678 F       1  UNL1       -0.1659
     17 F         137.0920  138.4211  167.7237 F       1  UNL1       -0.1659
     18 C         144.2938  143.0133  163.2179 C.3     1  UNL1        0.0730
     19 C         145.0698  142.3020  164.2865 C.3     1  UNL1        0.0294
     20 C         145.8137  141.0410  163.9598 C.3     1  UNL1        0.0666
     21 S         145.2373  139.7099  164.3417 S.3     1  UNL1       -0.0756
     22 C         141.6109  139.0972  163.1010 C.ar    1  UNL1        0.2029
     23 N         141.4365  138.9615  164.5846 N.ar    1  UNL1       -0.1250
     24 N         142.7738  139.1745  165.2300 N.ar    1  UNL1       -0.1220
     25 C         143.7746  139.4419  164.1452 C.ar    1  UNL1        0.1933
     26 N         143.0560  139.3941  162.8294 N.ar    1  UNL1       -0.2860
     27 C         143.6739  139.6060  161.4791 C.3     1  UNL1        0.1341
     28 C         140.3388  141.5191  161.3217 C.3     1  UNL1        0.0556
     29 C         139.9453  140.0733  161.2522 C.ar    1  UNL1        0.1001
     30 N         138.8981  139.4868  160.3526 N.ar    1  UNL1       -0.2085
     31 C         138.8355  138.0111  160.6144 C.ar    1  UNL1        0.2849
     32 O         139.8442  137.6856  161.6758 O.2     1  UNL1       -0.4283
     33 C         140.5301  138.9600  162.0700 C.ar    1  UNL1        0.1964
@<TRIPOS>BOND
     1    28    29    1
     2    29    30   ar
     3    30    31   ar
     4    31    32   ar
     5    32    33   ar
     6    33    22    1
     7    22    23   ar
     8    23    24   ar
     9    24    25   ar
    10    25    21    1
    11    21    20    1
    12    20    19    1
    13    19    18    1
    14    18     1    1
    15     1     2    1
    16     2     3    1
    17     4     3    1
    18     4     5    1
    19     5     6    1
    20     6     8    1
    21     8     9   ar
    22     9    10   ar
    23    10    11   ar
    24    11    14    1
    25    14    15    1
    26    14    16    1
    27    14    17    1
    28    11    12   ar
    29    12    13   ar
    30     4     7    1
    31    25    26   ar
    32    26    27    1
    33    33    29   ar
    34    26    22   ar
    35     7     1    1
    36     6     4    1
    37    13     8   ar
@<TRIPOS>MOLECULE
*****
 33 37 0 0 0
SMALL
GASTEIGER

@<TRIPOS>ATOM
      1 N         141.1084  138.5654  162.9948 N.3     1  UNL1       -0.2726
      2 C         139.8867  137.7499  162.6910 C.3     1  UNL1        0.0721
      3 C         138.9789  137.8132  163.8834 C.3     1  UNL1        0.0190
      4 C         139.6395  138.6679  164.9241 C.3     1  UNL1        0.0201
      5 C         138.5457  138.5473  165.9435 C.3     1  UNL1        0.0061
      6 C         139.7674  139.3628  166.2472 C.3     1  UNL1        0.0237
      7 C         140.9556  139.1328  164.3749 C.3     1  UNL1        0.0724
      8 C         140.5466  140.2349  167.1865 C.ar    1  UNL1       -0.0225
      9 C         140.0494  141.6104  167.5197 C.ar    1  UNL1       -0.0043
     10 C         140.8287  142.4824  168.4590 C.ar    1  UNL1        0.0035
     11 C         142.1051  141.9791  169.0651 C.ar    1  UNL1        0.0714
     12 C         142.6023  140.6036  168.7319 C.ar    1  UNL1        0.0035
     13 C         141.8230  139.7315  167.7926 C.ar    1  UNL1       -0.0043
     14 C         142.8843  142.8511  170.0044 C.3     1  UNL1        0.4186
     15 F         143.6636  143.7232  170.9437 F       1  UNL1       -0.1659
     16 F         141.7301  143.8066  170.0747 F       1  UNL1       -0.1659
     17 F         144.0384  141.8957  169.9340 F       1  UNL1       -0.1659
     18 C         142.2776  138.7766  162.0792 C.3     1  UNL1        0.0730
     19 C         143.6612  138.4185  162.5347 C.3     1  UNL1        0.0294
     20 C         144.3100  139.1934  163.6431 C.3     1  UNL1        0.0666
     21 S         144.5984  140.6549  163.4676 S.3     1  UNL1       -0.0756
     22 C         141.7783  143.3172  163.6245 C.ar    1  UNL1        0.2029
     23 N         142.1104  143.1606  165.0789 N.ar    1  UNL1       -0.1250
     24 N         143.2072  142.1443  165.1971 N.ar    1  UNL1       -0.1220
     25 C         143.5530  141.6727  163.8158 C.ar    1  UNL1        0.1933
     26 N         142.6699  142.3976  162.8438 N.ar    1  UNL1       -0.2860
     27 C         142.6772  142.2320  161.3530 C.3     1  UNL1        0.1341
     28 C         138.5494  142.8560  163.7317 C.3     1  UNL1        0.0556
     29 C         139.2532  144.0207  163.1006 C.ar    1  UNL1        0.1001
     30 N         138.5965  145.1778  162.4081 N.ar    1  UNL1       -0.2085
     31 C         139.6747  146.1050  161.9308 C.ar    1  UNL1        0.2849
     32 O         140.9979  145.5209  162.3283 O.2     1  UNL1       -0.4283
     33 C         140.7373  144.2327  163.0513 C.ar    1  UNL1        0.1964
@<TRIPOS>BOND
     1    28    29    1
     2    29    30   ar
     3    30    31   ar
     4    31    32   ar
     5    32    33   ar
     6    33    22    1
     7    22    23   ar
     8    23    24   ar
     9    24    25   ar
    10    25    21    1
    11    21    20    1
    12    20    19    1
    13    19    18    1
    14    18     1    1
    15     1     2    1
    16     2     3    1
    17     4     3    1
    18     4     5    1
    19     5     6    1
    20     6     8    1
    21     8     9   ar
    22     9    10   ar
    23    10    11   ar
    24    11    14    1
    25    14    15    1
    26    14    16    1
    27    14    17    1
    28    11    12   ar
    29    12    13   ar
    30     4     7    1
    31    25    26   ar
    32    26    27    1
    33    33    29   ar
    34    26    22   ar
    35     7     1    1
    36     6     4    1
    37    13     8   ar
@<TRIPOS>MOLECULE
*****
 33 37 0 0 0
SMALL
GASTEIGER

@<TRIPOS>ATOM
      1 N         138.1050  140.0135  162.8640 N.3     1  UNL1       -0.2726
      2 C         138.0451  138.6881  162.1643 C.3     1  UNL1        0.0721
      3 C         138.8594  137.7086  162.9564 C.3     1  UNL1        0.0190
      4 C         139.4225  138.4287  164.1457 C.3     1  UNL1        0.0201
      5 C         140.1510  137.2470  164.7141 C.3     1  UNL1        0.0061
      6 C         140.2108  138.5724  165.4138 C.3     1  UNL1        0.0237
      7 C         138.9562  139.8532  164.0886 C.3     1  UNL1        0.0724
      8 C         140.7005  139.4207  166.5499 C.ar    1  UNL1       -0.0225
      9 C         139.7197  140.1613  167.4099 C.ar    1  UNL1       -0.0043
     10 C         140.2093  141.0095  168.5459 C.ar    1  UNL1        0.0035
     11 C         141.6798  141.1172  168.8220 C.ar    1  UNL1        0.0714
     12 C         142.6605  140.3765  167.9620 C.ar    1  UNL1        0.0035
     13 C         142.1709  139.5283  166.8260 C.ar    1  UNL1       -0.0043
     14 C         142.1694  141.9654  169.9581 C.3     1  UNL1        0.4186
     15 F         142.6591  142.8137  171.0943 F       1  UNL1       -0.1659
     16 F         142.9113  142.8364  168.9881 F       1  UNL1       -0.1659
     17 F         141.4275  141.0944  170.9281 F       1  UNL1       -0.1659
     18 C         137.4317  141.2774  162.4176 C.3     1  UNL1        0.0730
     19 C         137.3750  142.4618  163.3362 C.3     1  UNL1        0.0294
     20 C         137.7647  143.8203  162.8335 C.3     1  UNL1        0.0666
     21 S         138.8323  144.6032  163.5386 S.3     1  UNL1       -0.0756
     22 C         142.1379  142.7292  164.3301 C.ar    1  UNL1        0.2029
     23 N         141.5571  142.8856  165.7043 N.ar    1  UNL1       -0.1250
     24 N         140.2482  143.6066  165.5750 N.ar    1  UNL1       -0.1220
     25 C         140.0199  143.8959  164.1210 C.ar    1  UNL1        0.1933
     26 N         141.1878  143.3536  163.3515 N.ar    1  UNL1       -0.2860
     27 C         141.3731  143.4235  161.8647 C.3     1  UNL1        0.1341
     28 C         142.4939  139.8886  162.7636 C.3     1  UNL1        0.0556
     29 C         143.6037  140.7594  163.2736 C.ar    1  UNL1        0.1001
     30 N         145.0720  140.4774  163.1530 N.ar    1  UNL1       -0.2085
     31 C         145.8159  141.6087  163.7986 C.ar    1  UNL1        0.2849
     32 O         144.8073  142.5900  164.3181 O.2     1  UNL1       -0.4283
     33 C         143.4401  142.0650  163.9936 C.ar    1  UNL1        0.1964
@<TRIPOS>BOND
     1    28    29    1
     2    29    30   ar
     3    30    31   ar
     4    31    32   ar
     5    32    33   ar
     6    33    22    1
     7    22    23   ar
     8    23    24   ar
     9    24    25   ar
    10    25    21    1
    11    21    20    1
    12    20    19    1
    13    19    18    1
    14    18     1    1
    15     1     2    1
    16     2     3    1
    17     4     3    1
    18     4     5    1
    19     5     6    1
    20     6     8    1
    21     8     9   ar
    22     9    10   ar
    23    10    11   ar
    24    11    14    1
    25    14    15    1
    26    14    16    1
    27    14    17    1
    28    11    12   ar
    29    12    13   ar
    30     4     7    1
    31    25    26   ar
    32    26    27    1
    33    33    29   ar
    34    26    22   ar
    35     7     1    1
    36     6     4    1
    37    13     8   ar
@<TRIPOS>MOLECULE
*****
 33 37 0 0 0
SMALL
GASTEIGER

@<TRIPOS>ATOM
      1 N         144.2283  142.2379  163.0576 N.3     1  UNL1       -0.2726
      2 C         144.9017  141.0267  162.4837 C.3     1  UNL1        0.0721
      3 C         144.6749  139.8808  163.4246 C.3     1  UNL1        0.0190
      4 C         143.8613  140.3837  164.5800 C.3     1  UNL1        0.0201
      5 C         143.8020  139.0754  165.3113 C.3     1  UNL1        0.0061
      6 C         143.1285  140.2866  165.8853 C.3     1  UNL1        0.0237
      7 C         143.5852  141.8406  164.3532 C.3     1  UNL1        0.0724
      8 C         142.3167  140.9299  166.9702 C.ar    1  UNL1       -0.0225
      9 C         140.8695  140.5718  167.1366 C.ar    1  UNL1       -0.0043
     10 C         140.0577  141.2150  168.2215 C.ar    1  UNL1        0.0035
     11 C         140.6930  142.2164  169.1401 C.ar    1  UNL1        0.0714
     12 C         142.1401  142.5745  168.9737 C.ar    1  UNL1        0.0035
     13 C         142.9519  141.9312  167.8888 C.ar    1  UNL1       -0.0043
     14 C         139.8811  142.8596  170.2250 C.3     1  UNL1        0.4186
     15 F         139.0692  143.5029  171.3100 F       1  UNL1       -0.1659
     16 F         139.0459  141.6186  170.3358 F       1  UNL1       -0.1659
     17 F         140.7163  144.1006  170.1142 F       1  UNL1       -0.1659
     18 C         144.2024  143.6063  162.4438 C.3     1  UNL1        0.0730
     19 C         143.8987  144.8042  163.2940 C.3     1  UNL1        0.0294
     20 C         142.4805  145.2615  163.4666 C.3     1  UNL1        0.0666
     21 S         141.3942  144.6739  162.6154 S.3     1  UNL1       -0.0756
     22 C         139.5128  141.3661  163.3799 C.ar    1  UNL1        0.2029
     23 N         139.0435  142.2343  164.5095 N.ar    1  UNL1       -0.1250
     24 N         139.6912  143.5791  164.3606 N.ar    1  UNL1       -0.1220
     25 C         140.5608  143.5420  163.1390 C.ar    1  UNL1        0.1933
     26 N         140.4506  142.1744  162.5328 N.ar    1  UNL1       -0.2860
     27 C         141.1545  141.6985  161.2967 C.3     1  UNL1        0.1341
     28 C         137.6439  140.2829  160.9338 C.3     1  UNL1        0.0556
     29 C         138.2553  139.4422  162.0152 C.ar    1  UNL1        0.1001
     30 N         138.1151  137.9560  162.1622 N.ar    1  UNL1       -0.2085
     31 C         138.8875  137.5354  163.3773 C.ar    1  UNL1        0.2849
     32 O         139.5051  138.7616  163.9814 O.2     1  UNL1       -0.4283
     33 C         139.1144  139.9401  163.1396 C.ar    1  UNL1        0.1964
@<TRIPOS>BOND
     1    28    29    1
     2    29    30   ar
     3    30    31   ar
     4    31    32   ar
     5    32    33   ar
     6    33    22    1
     7    22    23   ar
     8    23    24   ar
     9    24    25   ar
    10    25    21    1
    11    21    20    1
    12    20    19    1
    13    19    18    1
    14    18     1    1
    15     1     2    1
    16     2     3    1
    17     4     3    1
    18     4     5    1
    19     5     6    1
    20     6     8    1
    21     8     9   ar
    22     9    10   ar
    23    10    11   ar
    24    11    14    1
    25    14    15    1
    26    14    16    1
    27    14    17    1
    28    11    12   ar
    29    12    13   ar
    30     4     7    1
    31    25    26   ar
    32    26    27    1
    33    33    29   ar
    34    26    22   ar
    35     7     1    1
    36     6     4    1
    37    13     8   ar
@<TRIPOS>MOLECULE
*****
 33 37 0 0 0
SMALL
GASTEIGER

@<TRIPOS>ATOM
      1 N         138.2820  140.5181  163.4063 N.3     1  UNL1       -0.2726
      2 C         138.2245  139.1781  162.7347 C.3     1  UNL1        0.0721
      3 C         139.1752  138.2618  163.4464 C.3     1  UNL1        0.0190
      4 C         139.8202  139.0355  164.5579 C.3     1  UNL1        0.0201
      5 C         140.6733  137.9082  165.0591 C.3     1  UNL1        0.0061
      6 C         140.7309  139.2482  165.7307 C.3     1  UNL1        0.0237
      7 C         139.2682  140.4300  164.5331 C.3     1  UNL1        0.0724
      8 C         141.2898  140.1447  166.7956 C.ar    1  UNL1       -0.0225
      9 C         142.4704  141.0200  166.4955 C.ar    1  UNL1       -0.0043
     10 C         143.0293  141.9164  167.5604 C.ar    1  UNL1        0.0035
     11 C         142.4076  141.9376  168.9253 C.ar    1  UNL1        0.0714
     12 C         141.2270  141.0623  169.2254 C.ar    1  UNL1        0.0035
     13 C         140.6681  140.1658  168.1605 C.ar    1  UNL1       -0.0043
     14 C         142.9665  142.8340  169.9902 C.3     1  UNL1        0.4186
     15 F         143.5255  143.7305  171.0551 F       1  UNL1       -0.1659
     16 F         141.7093  143.6515  169.9618 F       1  UNL1       -0.1659
     17 F         144.2238  142.0165  170.0185 F       1  UNL1       -0.1659
     18 C         137.4920  141.7330  163.0191 C.3     1  UNL1        0.0730
     19 C         137.7220  143.0346  163.7282 C.3     1  UNL1        0.0294
     20 C         137.7556  144.3169  162.9505 C.3     1  UNL1        0.0666
     21 S         139.0710  144.9408  162.5895 S.3     1  UNL1       -0.0756
     22 C         142.2653  142.7507  162.3316 C.ar    1  UNL1        0.2029
     23 N         141.7789  142.7223  160.9129 N.ar    1  UNL1       -0.1250
     24 N         140.5232  143.5392  160.8368 N.ar    1  UNL1       -0.1220
     25 C         140.2334  144.0725  162.2085 C.ar    1  UNL1        0.1933
     26 N         141.3100  143.5853  163.1324 N.ar    1  UNL1       -0.2860
     27 C         141.4133  143.8806  164.5994 C.3     1  UNL1        0.1341
     28 C         142.7557  139.5268  162.4560 C.3     1  UNL1        0.0556
     29 C         143.7169  140.5832  162.9144 C.ar    1  UNL1        0.1001
     30 N         145.0722  140.3432  163.5106 N.ar    1  UNL1       -0.2085
     31 C         145.6845  141.6767  163.8218 C.ar    1  UNL1        0.2849
     32 O         144.7075  142.7409  163.4181 O.2     1  UNL1       -0.4283
     33 C         143.4914  142.0650  162.8573 C.ar    1  UNL1        0.1964
@<TRIPOS>BOND
     1    28    29    1
     2    29    30   ar
     3    30    31   ar
     4    31    32   ar
     5    32    33   ar
     6    33    22    1
     7    22    23   ar
     8    23    24   ar
     9    24    25   ar
    10    25    21    1
    11    21    20    1
    12    20    19    1
    13    19    18    1
    14    18     1    1
    15     1     2    1
    16     2     3    1
    17     4     3    1
    18     4     5    1
    19     5     6    1
    20     6     8    1
    21     8     9   ar
    22     9    10   ar
    23    10    11   ar
    24    11    14    1
    25    14    15    1
    26    14    16    1
    27    14    17    1
    28    11    12   ar
    29    12    13   ar
    30     4     7    1
    31    25    26   ar
    32    26    27    1
    33    33    29   ar
    34    26    22   ar
    35     7     1    1
    36     6     4    1
    37    13     8   ar
@<TRIPOS>MOLECULE
*****
 33 37 0 0 0
SMALL
GASTEIGER

@<TRIPOS>ATOM
      1 N         141.1927  144.4302  162.4461 N.3     1  UNL1       -0.2726
      2 C         140.0056  145.2411  162.0180 C.3     1  UNL1        0.0721
      3 C         138.9002  145.0000  163.0029 C.3     1  UNL1        0.0190
      4 C         139.4041  144.0402  164.0396 C.3     1  UNL1        0.0201
      5 C         138.1380  143.9979  164.8428 C.3     1  UNL1        0.0061
      6 C         139.3251  143.1870  165.2709 C.3     1  UNL1        0.0237
      7 C         140.8210  143.6880  163.6955 C.3     1  UNL1        0.0724
      8 C         139.9649  142.2263  166.2288 C.ar    1  UNL1       -0.0225
      9 C         139.4155  140.8386  166.3783 C.ar    1  UNL1       -0.0043
     10 C         140.0553  139.8779  167.3363 C.ar    1  UNL1        0.0035
     11 C         141.2444  140.3049  168.1448 C.ar    1  UNL1        0.0714
     12 C         141.7937  141.6927  167.9953 C.ar    1  UNL1        0.0035
     13 C         141.1540  142.6534  167.0373 C.ar    1  UNL1       -0.0043
     14 C         141.8842  139.3442  169.1027 C.3     1  UNL1        0.4186
     15 F         142.5240  138.3835  170.0607 F       1  UNL1       -0.1659
     16 F         140.8515  139.6863  170.1355 F       1  UNL1       -0.1659
     17 F         142.9168  139.0021  168.0700 F       1  UNL1       -0.1659
     18 C         142.5188  144.3717  161.7474 C.3     1  UNL1        0.0730
     19 C         143.7729  144.1400  162.5370 C.3     1  UNL1        0.0294
     20 C         144.8672  143.2833  161.9724 C.3     1  UNL1        0.0666
     21 S         145.0879  141.8994  162.5073 S.3     1  UNL1       -0.0756
     22 C         141.8757  139.9627  163.5056 C.ar    1  UNL1        0.2029
     23 N         142.5679  140.0789  164.8312 N.ar    1  UNL1       -0.1250
     24 N         143.8555  140.8185  164.6186 N.ar    1  UNL1       -0.1220
     25 C         143.9590  141.1595  163.1615 C.ar    1  UNL1        0.1933
     26 N         142.7354  140.6306  162.4736 N.ar    1  UNL1       -0.2860
     27 C         142.4260  140.7488  161.0107 C.3     1  UNL1        0.1341
     28 C         141.0450  136.9457  164.4314 C.3     1  UNL1        0.0556
     29 C         140.1737  137.9091  163.6813 C.ar    1  UNL1        0.1001
     30 N         138.7676  137.6548  163.2250 N.ar    1  UNL1       -0.2085
     31 C         138.2804  138.8845  162.5175 C.ar    1  UNL1        0.2849
     32 O         139.3854  139.8987  162.5364 O.2     1  UNL1       -0.4283
     33 C         140.5555  139.2958  163.2557 C.ar    1  UNL1        0.1964
@<TRIPOS>BOND
     1    28    29    1
     2    29    30   ar
     3    30    31   ar
     4    31    32   ar
     5    32    33   ar
     6    33    22    1
     7    22    23   ar
     8    23    24   ar
     9    24    25   ar
    10    25    21    1
    11    21    20    1
    12    20    19    1
    13    19    18    1
    14    18     1    1
    15     1     2    1
    16     2     3    1
    17     4     3    1
    18     4     5    1
    19     5     6    1
    20     6     8    1
    21     8     9   ar
    22     9    10   ar
    23    10    11   ar
    24    11    14    1
    25    14    15    1
    26    14    16    1
    27    14    17    1
    28    11    12   ar
    29    12    13   ar
    30     4     7    1
    31    25    26   ar
    32    26    27    1
    33    33    29   ar
    34    26    22   ar
    35     7     1    1
    36     6     4    1
    37    13     8   ar
@<TRIPOS>MOLECULE
*****
 33 37 0 0 0
SMALL
GASTEIGER

@<TRIPOS>ATOM
      1 N         137.9872  141.3083  162.2035 N.3     1  UNL1       -0.2726
      2 C         137.6676  140.2351  161.2055 C.3     1  UNL1        0.0721
      3 C         138.0538  138.9152  161.8045 C.3     1  UNL1        0.0190
      4 C         138.6121  139.1727  163.1727 C.3     1  UNL1        0.0201
      5 C         138.8939  137.7363  163.5000 C.3     1  UNL1        0.0061
      6 C         139.2135  138.8095  164.4980 C.3     1  UNL1        0.0237
      7 C         138.5709  140.6518  163.4193 C.3     1  UNL1        0.0724
      8 C         139.7452  139.2194  165.8394 C.ar    1  UNL1       -0.0225
      9 C         141.2240  139.3559  166.0502 C.ar    1  UNL1       -0.0043
     10 C         141.7557  139.7659  167.3915 C.ar    1  UNL1        0.0035
     11 C         140.8086  140.0393  168.5221 C.ar    1  UNL1        0.0714
     12 C         139.3298  139.9028  168.3113 C.ar    1  UNL1        0.0035
     13 C         138.7980  139.4929  166.9699 C.ar    1  UNL1       -0.0043
     14 C         141.3403  140.4492  169.8634 C.3     1  UNL1        0.4186
     15 F         141.8720  140.8592  171.2048 F       1  UNL1       -0.1659
     16 F         141.8267  139.0499  170.0983 F       1  UNL1       -0.1659
     17 F         140.8539  141.8486  169.6285 F       1  UNL1       -0.1659
     18 C         137.7625  142.7797  162.0182 C.3     1  UNL1        0.0730
     19 C         138.4650  143.7634  162.9064 C.3     1  UNL1        0.0294
     20 C         138.6896  145.1704  162.4373 C.3     1  UNL1        0.0666
     21 S         140.0795  145.7325  162.3908 S.3     1  UNL1       -0.0756
     22 C         143.0234  143.2046  162.2977 C.ar    1  UNL1        0.2029
     23 N         143.0316  143.7113  160.8859 N.ar    1  UNL1       -0.1250
     24 N         141.9298  144.7199  160.7489 N.ar    1  UNL1       -0.1220
     25 C         141.2407  144.8366  162.0761 C.ar    1  UNL1        0.1933
     26 N         141.9165  143.9002  163.0333 N.ar    1  UNL1       -0.2860
     27 C         141.5498  143.6952  164.4733 C.3     1  UNL1        0.1341
     28 C         142.4282  140.0089  162.5859 C.3     1  UNL1        0.0556
     29 C         143.6844  140.7131  163.0054 C.ar    1  UNL1        0.1001
     30 N         144.8876  140.0721  163.6310 N.ar    1  UNL1       -0.2085
     31 C         145.9048  141.1448  163.8852 C.ar    1  UNL1        0.2849
     32 O         145.3303  142.4488  163.4167 O.2     1  UNL1       -0.4283
     33 C         143.9580  142.1820  162.8729 C.ar    1  UNL1        0.1964
@<TRIPOS>BOND
     1    28    29    1
     2    29    30   ar
     3    30    31   ar
     4    31    32   ar
     5    32    33   ar
     6    33    22    1
     7    22    23   ar
     8    23    24   ar
     9    24    25   ar
    10    25    21    1
    11    21    20    1
    12    20    19    1
    13    19    18    1
    14    18     1    1
    15     1     2    1
    16     2     3    1
    17     4     3    1
    18     4     5    1
    19     5     6    1
    20     6     8    1
    21     8     9   ar
    22     9    10   ar
    23    10    11   ar
    24    11    14    1
    25    14    15    1
    26    14    16    1
    27    14    17    1
    28    11    12   ar
    29    12    13   ar
    30     4     7    1
    31    25    26   ar
    32    26    27    1
    33    33    29   ar
    34    26    22   ar
    35     7     1    1
    36     6     4    1
    37    13     8   ar
@<TRIPOS>MOLECULE
*****
 33 37 0 0 0
SMALL
GASTEIGER

@<TRIPOS>ATOM
      1 N         141.9340  138.1953  163.2913 N.3     1  UNL1       -0.2726
      2 C         143.1840  138.2329  162.4631 C.3     1  UNL1        0.0721
      3 C         144.0955  139.2715  163.0466 C.3     1  UNL1        0.0190
      4 C         143.4087  139.8758  164.2354 C.3     1  UNL1        0.0201
      5 C         144.5120  140.8298  164.5857 C.3     1  UNL1        0.0061
      6 C         143.2619  140.7922  165.4139 C.3     1  UNL1        0.0237
      7 C         142.0728  139.2106  164.3867 C.3     1  UNL1        0.0724
      8 C         142.4555  141.2995  166.5724 C.ar    1  UNL1       -0.0225
      9 C         141.4513  142.3944  166.3651 C.ar    1  UNL1       -0.0043
     10 C         140.6449  142.9017  167.5236 C.ar    1  UNL1        0.0035
     11 C         140.8425  142.3141  168.8895 C.ar    1  UNL1        0.0714
     12 C         141.8467  141.2192  169.0968 C.ar    1  UNL1        0.0035
     13 C         142.6531  140.7119  167.9383 C.ar    1  UNL1       -0.0043
     14 C         140.0361  142.8214  170.0480 C.3     1  UNL1        0.4186
     15 F         139.2295  143.3287  171.2066 F       1  UNL1       -0.1659
     16 F         140.2612  144.2311  169.5874 F       1  UNL1       -0.1659
     17 F         139.8109  141.4117  170.5086 F       1  UNL1       -0.1659
     18 C         140.7524  137.2995  163.0641 C.3     1  UNL1        0.0730
     19 C         139.3727  137.7759  163.4096 C.3     1  UNL1        0.0294
     20 C         138.3682  138.0172  162.3220 C.3     1  UNL1        0.0666
     21 S         138.0679  139.4174  161.8757 S.3     1  UNL1       -0.0756
     22 C         140.7163  142.2451  162.1119 C.ar    1  UNL1        0.2029
     23 N         141.0807  141.6155  160.8001 N.ar    1  UNL1       -0.1250
     24 N         140.1329  140.4796  160.5520 N.ar    1  UNL1       -0.1220
     25 C         139.1828  140.4072  161.7104 C.ar    1  UNL1        0.1933
     26 N         139.5433  141.4983  162.6745 N.ar    1  UNL1       -0.2860
     27 C         138.8521  141.7912  163.9732 C.3     1  UNL1        0.1341
     28 C         139.3987  145.1808  162.6555 C.3     1  UNL1        0.0556
     29 C         140.7984  144.7653  162.9991 C.ar    1  UNL1        0.1001
     30 N         141.8383  145.6262  163.6528 N.ar    1  UNL1       -0.2085
     31 C         143.0867  144.8089  163.8071 C.ar    1  UNL1        0.2849
     32 O         142.8183  143.4429  163.2486 O.2     1  UNL1       -0.4283
     33 C         141.4041  143.4159  162.7492 C.ar    1  UNL1        0.1964
@<TRIPOS>BOND
     1    28    29    1
     2    29    30   ar
     3    30    31   ar
     4    31    32   ar
     5    32    33   ar
     6    33    22    1
     7    22    23   ar
     8    23    24   ar
     9    24    25   ar
    10    25    21    1
    11    21    20    1
    12    20    19    1
    13    19    18    1
    14    18     1    1
    15     1     2    1
    16     2     3    1
    17     4     3    1
    18     4     5    1
    19     5     6    1
    20     6     8    1
    21     8     9   ar
    22     9    10   ar
    23    10    11   ar
    24    11    14    1
    25    14    15    1
    26    14    16    1
    27    14    17    1
    28    11    12   ar
    29    12    13   ar
    30     4     7    1
    31    25    26   ar
    32    26    27    1
    33    33    29   ar
    34    26    22   ar
    35     7     1    1
    36     6     4    1
    37    13     8   ar
