@<TRIPOS>MOLECULE
*****
 33 37 0 0 0
SMALL
GASTEIGER

@<TRIPOS>ATOM
      1 C         139.0976  141.7228  163.2661 C.ar    1  UNL1        0.0327
      2 C         137.8434  142.3787  162.7695 C.ar    1  UNL1        0.1001
      3 N         137.7631  142.8689  161.3542 N.ar    1  UNL1       -0.2420
      4 C         138.9371  142.7031  160.4354 C.ar    1  UNL1        0.1078
      5 C         140.1914  142.0471  160.9319 C.ar    1  UNL1        0.1207
      6 C         140.2716  141.5570  162.3472 C.ar    1  UNL1        0.0583
      7 C         141.3653  141.8813  160.0130 C.2     1  UNL1        0.3780
      8 N         142.5312  142.8177  159.8942 N.2     1  UNL1       -0.0308
      9 C         143.4660  142.2651  158.8595 C.2     1  UNL1        0.2318
     10 C         144.7767  142.7605  158.3241 C.2     1  UNL1        0.0456
     11 C         145.4993  141.9780  157.2680 C.2     1  UNL1       -0.0219
     12 C         146.8101  142.4733  156.7327 C.3     1  UNL1        0.0308
     13 C         144.9113  140.7001  156.7473 C.2     1  UNL1       -0.0214
     14 C         143.6006  140.2047  157.2826 C.3     1  UNL1        0.1034
     15 C         142.8779  140.9873  158.3387 C.2     1  UNL1        0.2178
     16 N         141.5797  140.7501  159.0516 N.2     1  UNL1       -0.0346
     17 N         141.5259  140.9010  162.8438 N.pl3   1  UNL1       -0.3071
     18 C         142.6476  141.7386  163.3824 C.3     1  UNL1        0.0921
     19 C         143.9019  141.0827  163.8790 C.3     1  UNL1        0.0369
     20 C         144.0344  139.5891  163.8370 C.3     1  UNL1        0.0542
     21 N         145.2886  138.9332  164.3336 N.3     1  UNL1       -0.3221
     22 C         142.9127  138.7515  163.2984 C.3     1  UNL1        0.0369
     23 C         141.6584  139.4075  162.8018 C.3     1  UNL1        0.0921
     24 H         145.9391  139.6474  164.6610 H       1  UNL1        0.1188
     25 H         145.7186  138.4038  163.5751 H       1  UNL1        0.1188
     26 C         137.7641  138.2733  166.9161 C.3     1  UNL1        0.0310
     27 C         138.5111  139.5078  166.5064 C.ar    1  UNL1       -0.0222
     28 C         139.3385  140.2522  167.5122 C.ar    1  UNL1       -0.0085
     29 C         140.0855  141.4868  167.1026 C.ar    1  UNL1       -0.0222
     30 C         140.9128  142.2311  168.1083 C.3     1  UNL1        0.0310
     31 C         140.0052  141.9770  165.6872 C.ar    1  UNL1       -0.0042
     32 C         139.1779  141.2326  164.6815 C.ar    1  UNL1        0.0021
     33 C         138.4309  139.9980  165.0911 C.ar    1  UNL1       -0.0042
@<TRIPOS>BOND
     1    26    27    1
     2    27    28   ar
     3    28    29   ar
     4    29    30    1
     5    29    31   ar
     6    31    32   ar
     7    32     1    1
     8     1     2   ar
     9     2     3   ar
    10     3     4   ar
    11     4     5   ar
    12     5     7    1
    13     7     8    2
    14     8     9    1
    15     9    10    2
    16    10    11    1
    17    11    12    1
    18    11    13    2
    19    13    14    1
    20    14    15    1
    21    15    16    2
    22     5     6   ar
    23     6    17    1
    24    17    18    1
    25    18    19    1
    26    19    20    1
    27    20    21    1
    28    20    22    1
    29    22    23    1
    30    32    33   ar
    31    33    27   ar
    32     6     1   ar
    33    23    17    1
    34    16     7    1
    35    15     9    1
    36    21    24    1
    37    21    25    1
@<TRIPOS>MOLECULE
*****
 33 37 0 0 0
SMALL
GASTEIGER

@<TRIPOS>ATOM
      1 C         139.1029  141.7122  163.2824 C.ar    1  UNL1        0.0327
      2 C         137.8529  142.3799  162.7908 C.ar    1  UNL1        0.1001
      3 N         137.7759  142.8812  161.3792 N.ar    1  UNL1       -0.2420
      4 C         138.9489  142.7148  160.4592 C.ar    1  UNL1        0.1078
      5 C         140.1989  142.0471  160.9508 C.ar    1  UNL1        0.1207
      6 C         140.2759  141.5458  162.3624 C.ar    1  UNL1        0.0583
      7 C         141.3719  141.8807  160.0308 C.2     1  UNL1        0.3780
      8 N         142.5353  142.8194  159.9068 N.2     1  UNL1       -0.0308
      9 C         143.4698  142.2653  158.8726 C.2     1  UNL1        0.2318
     10 C         144.7786  142.7618  158.3335 C.2     1  UNL1        0.0456
     11 C         145.5014  141.9771  157.2791 C.2     1  UNL1       -0.0219
     12 C         146.8102  142.4736  156.7399 C.3     1  UNL1        0.0308
     13 C         144.9156  140.6960  156.7639 C.2     1  UNL1       -0.0214
     14 C         143.6069  140.1995  157.3030 C.3     1  UNL1        0.1034
     15 C         142.8840  140.9841  158.3574 C.2     1  UNL1        0.2178
     16 N         141.5874  140.7465  159.0732 N.2     1  UNL1       -0.0346
     17 N         141.5259  140.8781  162.8541 N.pl3   1  UNL1       -0.3071
     18 C         142.6570  141.7050  163.3897 C.3     1  UNL1        0.0921
     19 C         143.9069  141.0374  163.8814 C.3     1  UNL1        0.0369
     20 C         144.0259  139.5427  163.8374 C.3     1  UNL1        0.0542
     21 N         145.2759  138.8751  164.3291 N.3     1  UNL1       -0.3221
     22 C         142.8949  138.7158  163.3018 C.3     1  UNL1        0.0369
     23 C         141.6449  139.3835  162.8101 C.3     1  UNL1        0.0921
     24 H         145.9338  139.5831  164.6550 H       1  UNL1        0.1188
     25 H         145.6986  138.3426  163.5687 H       1  UNL1        0.1188
     26 C         140.9078  142.1819  168.1324 C.3     1  UNL1        0.0310
     27 C         140.0824  141.4458  167.1191 C.ar    1  UNL1       -0.0222
     28 C         139.3341  140.2082  167.5174 C.ar    1  UNL1       -0.0085
     29 C         138.5088  139.4720  166.5041 C.ar    1  UNL1       -0.0222
     30 C         137.7605  138.2345  166.9024 C.3     1  UNL1        0.0310
     31 C         138.4317  139.9734  165.0924 C.ar    1  UNL1       -0.0042
     32 C         139.1800  141.2108  164.6941 C.ar    1  UNL1        0.0021
     33 C         140.0053  141.9470  165.7075 C.ar    1  UNL1       -0.0042
@<TRIPOS>BOND
     1    26    27    1
     2    27    28   ar
     3    28    29   ar
     4    29    30    1
     5    29    31   ar
     6    31    32   ar
     7    32     1    1
     8     1     2   ar
     9     2     3   ar
    10     3     4   ar
    11     4     5   ar
    12     5     7    1
    13     7     8    2
    14     8     9    1
    15     9    10    2
    16    10    11    1
    17    11    12    1
    18    11    13    2
    19    13    14    1
    20    14    15    1
    21    15    16    2
    22     5     6   ar
    23     6    17    1
    24    17    18    1
    25    18    19    1
    26    19    20    1
    27    20    21    1
    28    20    22    1
    29    22    23    1
    30    32    33   ar
    31    33    27   ar
    32     6     1   ar
    33    23    17    1
    34    16     7    1
    35    15     9    1
    36    21    24    1
    37    21    25    1
@<TRIPOS>MOLECULE
*****
 33 37 0 0 0
SMALL
GASTEIGER

@<TRIPOS>ATOM
      1 C         141.9575  140.0279  167.1554 C.ar    1  UNL1        0.0327
      2 C         142.9835  139.0195  167.5804 C.ar    1  UNL1        0.1001
      3 N         143.8750  138.3800  166.5576 N.ar    1  UNL1       -0.2420
      4 C         143.7406  138.7489  165.1099 C.ar    1  UNL1        0.1078
      5 C         142.7146  139.7572  164.6849 C.ar    1  UNL1        0.1207
      6 C         141.8231  140.3967  165.7077 C.ar    1  UNL1        0.0583
      7 C         142.5802  140.1260  163.2372 C.2     1  UNL1        0.3780
      8 N         143.4264  141.1199  162.4983 N.2     1  UNL1       -0.0308
      9 C         142.9452  141.1739  161.0786 C.2     1  UNL1        0.2318
     10 C         143.4006  141.9736  159.8942 C.2     1  UNL1        0.0456
     11 C         142.7123  141.8127  158.5712 C.2     1  UNL1       -0.0219
     12 C         143.1678  142.6124  157.3866 C.3     1  UNL1        0.0308
     13 C         141.5686  140.8521  158.4327 C.2     1  UNL1       -0.0214
     14 C         141.1132  140.0524  159.6171 C.3     1  UNL1        0.1034
     15 C         141.8014  140.2133  160.9401 C.2     1  UNL1        0.2178
     16 N         141.5759  139.5657  162.2742 N.2     1  UNL1       -0.0346
     17 N         140.7970  141.4051  165.2828 N.pl3   1  UNL1       -0.3071
     18 C         139.3903  140.9693  164.9980 C.3     1  UNL1        0.0921
     19 C         138.3642  141.9776  164.5731 C.3     1  UNL1        0.0369
     20 C         138.7449  143.4218  164.4330 C.3     1  UNL1        0.0542
     21 N         137.7189  144.4300  164.0081 N.3     1  UNL1       -0.3221
     22 C         140.1517  143.8575  164.7179 C.3     1  UNL1        0.0369
     23 C         141.1777  142.8491  165.1428 C.3     1  UNL1        0.0921
     24 H         136.8247  143.9628  163.8582 H       1  UNL1        0.1188
     25 H         138.0191  144.8760  163.1413 H       1  UNL1        0.1188
     26 C         140.6604  144.1426  170.0515 C.3     1  UNL1        0.0310
     27 C         140.4174  142.7248  169.6262 C.ar    1  UNL1       -0.0222
     28 C         139.2827  141.9465  170.2238 C.ar    1  UNL1       -0.0085
     29 C         139.0397  140.5287  169.7986 C.ar    1  UNL1       -0.0222
     30 C         137.9051  139.7505  170.3961 C.3     1  UNL1        0.0310
     31 C         139.9313  139.8892  168.7758 C.ar    1  UNL1       -0.0042
     32 C         141.0659  140.6674  168.1783 C.ar    1  UNL1        0.0021
     33 C         141.3089  142.0852  168.6035 C.ar    1  UNL1       -0.0042
@<TRIPOS>BOND
     1    26    27    1
     2    27    28   ar
     3    28    29   ar
     4    29    30    1
     5    29    31   ar
     6    31    32   ar
     7    32     1    1
     8     1     2   ar
     9     2     3   ar
    10     3     4   ar
    11     4     5   ar
    12     5     7    1
    13     7     8    2
    14     8     9    1
    15     9    10    2
    16    10    11    1
    17    11    12    1
    18    11    13    2
    19    13    14    1
    20    14    15    1
    21    15    16    2
    22     5     6   ar
    23     6    17    1
    24    17    18    1
    25    18    19    1
    26    19    20    1
    27    20    21    1
    28    20    22    1
    29    22    23    1
    30    32    33   ar
    31    33    27   ar
    32     6     1   ar
    33    23    17    1
    34    16     7    1
    35    15     9    1
    36    21    24    1
    37    21    25    1
@<TRIPOS>MOLECULE
*****
 33 37 0 0 0
SMALL
GASTEIGER

@<TRIPOS>ATOM
      1 C         141.9656  140.0370  167.1727 C.ar    1  UNL1        0.0327
      2 C         142.9934  139.0362  167.6108 C.ar    1  UNL1        0.1001
      3 N         143.8919  138.3914  166.5975 N.ar    1  UNL1       -0.2420
      4 C         143.7627  138.7474  165.1461 C.ar    1  UNL1        0.1078
      5 C         142.7349  139.7482  164.7080 C.ar    1  UNL1        0.1207
      6 C         141.8363  140.3930  165.7213 C.ar    1  UNL1        0.0583
      7 C         142.6056  140.1042  163.2566 C.2     1  UNL1        0.3780
      8 N         143.4761  141.0662  162.5038 N.2     1  UNL1       -0.0308
      9 C         142.9917  141.1173  161.0851 C.2     1  UNL1        0.2318
     10 C         143.4647  141.8908  159.8902 C.2     1  UNL1        0.0456
     11 C         142.7678  141.7338  158.5713 C.2     1  UNL1       -0.0219
     12 C         143.2408  142.5074  157.3763 C.3     1  UNL1        0.0308
     13 C         141.5978  140.8033  158.4472 C.2     1  UNL1       -0.0214
     14 C         141.1248  140.0298  159.6421 C.3     1  UNL1        0.1034
     15 C         141.8217  140.1868  160.9611 C.2     1  UNL1        0.2178
     16 N         141.5831  139.5607  162.3031 N.2     1  UNL1       -0.0346
     17 N         140.8085  141.3939  165.2832 N.pl3   1  UNL1       -0.3071
     18 C         139.3970  140.9559  165.0262 C.3     1  UNL1        0.0921
     19 C         138.3692  141.9567  164.5882 C.3     1  UNL1        0.0369
     20 C         138.7527  143.3955  164.4070 C.3     1  UNL1        0.0542
     21 N         137.7249  144.3963  163.9690 N.3     1  UNL1       -0.3221
     22 C         140.1642  143.8335  164.6640 C.3     1  UNL1        0.0369
     23 C         141.1920  142.8326  165.1021 C.3     1  UNL1        0.0921
     24 H         136.8275  143.9284  163.8416 H       1  UNL1        0.1188
     25 H         138.0160  144.8191  163.0875 H       1  UNL1        0.1188
     26 C         137.8896  139.7771  170.3850 C.3     1  UNL1        0.0310
     27 C         139.0290  140.5519  169.7921 C.ar    1  UNL1       -0.0222
     28 C         139.2698  141.9716  170.2125 C.ar    1  UNL1       -0.0085
     29 C         140.4091  142.7464  169.6197 C.ar    1  UNL1       -0.0222
     30 C         140.6499  144.1659  170.0400 C.3     1  UNL1        0.0310
     31 C         141.3078  142.1015  168.6063 C.ar    1  UNL1       -0.0042
     32 C         141.0670  140.6819  168.1860 C.ar    1  UNL1        0.0021
     33 C         139.9276  139.9071  168.7789 C.ar    1  UNL1       -0.0042
@<TRIPOS>BOND
     1    26    27    1
     2    27    28   ar
     3    28    29   ar
     4    29    30    1
     5    29    31   ar
     6    31    32   ar
     7    32     1    1
     8     1     2   ar
     9     2     3   ar
    10     3     4   ar
    11     4     5   ar
    12     5     7    1
    13     7     8    2
    14     8     9    1
    15     9    10    2
    16    10    11    1
    17    11    12    1
    18    11    13    2
    19    13    14    1
    20    14    15    1
    21    15    16    2
    22     5     6   ar
    23     6    17    1
    24    17    18    1
    25    18    19    1
    26    19    20    1
    27    20    21    1
    28    20    22    1
    29    22    23    1
    30    32    33   ar
    31    33    27   ar
    32     6     1   ar
    33    23    17    1
    34    16     7    1
    35    15     9    1
    36    21    24    1
    37    21    25    1
@<TRIPOS>MOLECULE
*****
 33 37 0 0 0
SMALL
GASTEIGER

@<TRIPOS>ATOM
      1 C         139.6745  140.6417  167.7925 C.ar    1  UNL1        0.0327
      2 C         138.8059  139.6439  168.4995 C.ar    1  UNL1        0.1001
      3 N         137.9996  138.6575  167.7078 N.ar    1  UNL1       -0.2420
      4 C         138.0619  138.6689  166.2091 C.ar    1  UNL1        0.1078
      5 C         138.9305  139.6667  165.5022 C.ar    1  UNL1        0.1207
      6 C         139.7368  140.6531  166.2939 C.ar    1  UNL1        0.0583
      7 C         138.9928  139.6781  164.0035 C.2     1  UNL1        0.3780
      8 N         138.0883  140.4502  163.0893 N.2     1  UNL1       -0.0308
      9 C         138.5070  140.1687  161.6767 C.2     1  UNL1        0.2318
     10 C         137.9793  140.6516  160.3582 C.2     1  UNL1        0.0456
     11 C         138.6149  140.1885  159.0810 C.2     1  UNL1       -0.0219
     12 C         138.0872  140.6714  157.7625 C.3     1  UNL1        0.0308
     13 C         139.7783  139.2425  159.1221 C.2     1  UNL1       -0.0214
     14 C         140.3060  138.7596  160.4406 C.3     1  UNL1        0.1034
     15 C         139.6704  139.2227  161.7178 C.2     1  UNL1        0.2178
     16 N         139.9706  138.9196  163.1559 N.2     1  UNL1       -0.0346
     17 N         140.6054  141.6510  165.5869 N.pl3   1  UNL1       -0.3071
     18 C         140.0643  143.0078  165.2457 C.3     1  UNL1        0.0921
     19 C         140.9328  144.0057  164.5388 C.3     1  UNL1        0.0369
     20 C         142.3427  143.6468  164.1730 C.3     1  UNL1        0.0542
     21 N         143.2112  144.6447  163.4661 N.3     1  UNL1       -0.3221
     22 C         142.8838  142.2901  164.5142 C.3     1  UNL1        0.0369
     23 C         142.0152  141.2922  165.2212 C.3     1  UNL1        0.0921
     24 H         142.6860  145.5059  163.3150 H       1  UNL1        0.1188
     25 H         143.5048  144.2632  162.5669 H       1  UNL1        0.1188
     26 C         144.1965  142.0998  169.8961 C.3     1  UNL1        0.0310
     27 C         142.7419  142.3572  169.6360 C.ar    1  UNL1       -0.0222
     28 C         142.0935  143.6011  170.1676 C.ar    1  UNL1       -0.0085
     29 C         140.6388  143.8585  169.9075 C.ar    1  UNL1       -0.0222
     30 C         139.9905  145.1023  170.4391 C.3     1  UNL1        0.0310
     31 C         139.8325  142.8720  169.1158 C.ar    1  UNL1       -0.0042
     32 C         140.4808  141.6282  168.5842 C.ar    1  UNL1        0.0021
     33 C         141.9355  141.3708  168.8443 C.ar    1  UNL1       -0.0042
@<TRIPOS>BOND
     1    26    27    1
     2    27    28   ar
     3    28    29   ar
     4    29    30    1
     5    29    31   ar
     6    31    32   ar
     7    32     1    1
     8     1     2   ar
     9     2     3   ar
    10     3     4   ar
    11     4     5   ar
    12     5     7    1
    13     7     8    2
    14     8     9    1
    15     9    10    2
    16    10    11    1
    17    11    12    1
    18    11    13    2
    19    13    14    1
    20    14    15    1
    21    15    16    2
    22     5     6   ar
    23     6    17    1
    24    17    18    1
    25    18    19    1
    26    19    20    1
    27    20    21    1
    28    20    22    1
    29    22    23    1
    30    32    33   ar
    31    33    27   ar
    32     6     1   ar
    33    23    17    1
    34    16     7    1
    35    15     9    1
    36    21    24    1
    37    21    25    1
@<TRIPOS>MOLECULE
*****
 33 37 0 0 0
SMALL
GASTEIGER

@<TRIPOS>ATOM
      1 C         139.5875  142.3964  161.6262 C.ar    1  UNL1        0.0327
      2 C         138.0917  142.4827  161.5542 C.ar    1  UNL1        0.1001
      3 N         137.2726  142.3638  162.8051 N.ar    1  UNL1       -0.2420
      4 C         137.9492  142.1586  164.1280 C.ar    1  UNL1        0.1078
      5 C         139.4450  142.0724  164.2000 C.ar    1  UNL1        0.1207
      6 C         140.2641  142.1912  162.9491 C.ar    1  UNL1        0.0583
      7 C         140.1216  141.8672  165.5229 C.2     1  UNL1        0.3780
      8 N         140.6833  140.5740  166.0348 N.2     1  UNL1       -0.0308
      9 C         141.2642  140.8268  167.3945 C.2     1  UNL1        0.2318
     10 C         141.9515  139.9244  168.3759 C.2     1  UNL1        0.0456
     11 C         142.4361  140.4715  169.6857 C.2     1  UNL1       -0.0219
     12 C         143.1234  139.5690  170.6673 C.3     1  UNL1        0.0308
     13 C         142.2335  141.9210  170.0141 C.2     1  UNL1       -0.0214
     14 C         141.5463  142.8234  169.0327 C.3     1  UNL1        0.1034
     15 C         141.0616  142.2763  167.7229 C.2     1  UNL1        0.2178
     16 N         140.3555  142.9193  166.5662 N.2     1  UNL1       -0.0346
     17 N         141.7600  142.1049  163.0210 N.pl3   1  UNL1       -0.3071
     18 C         142.5751  143.3507  163.2043 C.3     1  UNL1        0.0921
     19 C         144.0708  143.2645  163.2762 C.3     1  UNL1        0.0369
     20 C         144.7516  141.9324  163.1648 C.3     1  UNL1        0.0542
     21 N         146.2473  141.8462  163.2368 N.3     1  UNL1       -0.3221
     22 C         143.9364  140.6866  162.9815 C.3     1  UNL1        0.0369
     23 C         142.4406  140.7729  162.9096 C.3     1  UNL1        0.0921
     24 H         146.6361  142.7808  163.3621 H       1  UNL1        0.1188
     25 H         146.6065  141.4417  162.3720 H       1  UNL1        0.1188
     26 C         141.9268  145.3429  158.0421 C.3     1  UNL1        0.0310
     27 C         141.5763  143.9885  158.5832 C.ar    1  UNL1       -0.0222
     28 C         142.0450  142.7530  157.8733 C.ar    1  UNL1       -0.0085
     29 C         141.6945  141.3986  158.4144 C.ar    1  UNL1       -0.0222
     30 C         142.1632  140.1631  157.7046 C.3     1  UNL1        0.0310
     31 C         140.8753  141.2797  159.6654 C.ar    1  UNL1       -0.0042
     32 C         140.4067  142.5152  160.3752 C.ar    1  UNL1        0.0021
     33 C         140.7572  143.8696  159.8341 C.ar    1  UNL1       -0.0042
@<TRIPOS>BOND
     1    26    27    1
     2    27    28   ar
     3    28    29   ar
     4    29    30    1
     5    29    31   ar
     6    31    32   ar
     7    32     1    1
     8     1     2   ar
     9     2     3   ar
    10     3     4   ar
    11     4     5   ar
    12     5     7    1
    13     7     8    2
    14     8     9    1
    15     9    10    2
    16    10    11    1
    17    11    12    1
    18    11    13    2
    19    13    14    1
    20    14    15    1
    21    15    16    2
    22     5     6   ar
    23     6    17    1
    24    17    18    1
    25    18    19    1
    26    19    20    1
    27    20    21    1
    28    20    22    1
    29    22    23    1
    30    32    33   ar
    31    33    27   ar
    32     6     1   ar
    33    23    17    1
    34    16     7    1
    35    15     9    1
    36    21    24    1
    37    21    25    1
@<TRIPOS>MOLECULE
*****
 33 37 0 0 0
SMALL
GASTEIGER

@<TRIPOS>ATOM
      1 C         143.3736  141.6773  161.5128 C.ar    1  UNL1        0.0327
      2 C         144.8708  141.7477  161.4553 C.ar    1  UNL1        0.1001
      3 N         145.6706  141.7539  162.7242 N.ar    1  UNL1       -0.2420
      4 C         144.9732  141.6898  164.0507 C.ar    1  UNL1        0.1078
      5 C         143.4760  141.6195  164.1082 C.ar    1  UNL1        0.1207
      6 C         142.6762  141.6132  162.8393 C.ar    1  UNL1        0.0583
      7 C         142.7786  141.5554  165.4347 C.2     1  UNL1        0.3780
      8 N         142.0946  142.6966  166.1272 N.2     1  UNL1       -0.0308
      9 C         141.5360  142.1853  167.4221 C.2     1  UNL1        0.2318
     10 C         140.7626  142.8585  168.5170 C.2     1  UNL1        0.0456
     11 C         140.3281  142.0743  169.7195 C.2     1  UNL1       -0.0219
     12 C         139.5547  142.7474  170.8145 C.3     1  UNL1        0.0308
     13 C         140.6669  140.6171  169.8272 C.2     1  UNL1       -0.0214
     14 C         141.4402  139.9439  168.7324 C.3     1  UNL1        0.1034
     15 C         141.8748  140.7281  167.5298 C.2     1  UNL1        0.2178
     16 N         142.6428  140.3388  166.3015 N.2     1  UNL1       -0.0346
     17 N         141.1789  141.5428  162.8968 N.pl3   1  UNL1       -0.3071
     18 C         140.4910  140.2100  162.9190 C.3     1  UNL1        0.0921
     19 C         138.9938  140.1396  162.9765 C.3     1  UNL1        0.0369
     20 C         138.1844  141.4021  163.0118 C.3     1  UNL1        0.0542
     21 N         136.6872  141.3317  163.0692 N.3     1  UNL1       -0.3221
     22 C         138.8723  142.7349  162.9895 C.3     1  UNL1        0.0369
     23 C         140.3696  142.8052  162.9321 C.3     1  UNL1        0.0921
     24 H         136.3928  140.3551  163.0774 H       1  UNL1        0.1188
     25 H         136.2932  141.7987  162.2525 H       1  UNL1        0.1188
     26 C         141.0627  139.0622  157.6630 C.3     1  UNL1        0.0310
     27 C         141.4183  140.3635  158.3190 C.ar    1  UNL1       -0.0222
     28 C         140.9740  141.6585  157.7060 C.ar    1  UNL1       -0.0085
     29 C         141.3296  142.9597  158.3619 C.ar    1  UNL1       -0.0222
     30 C         140.8854  144.2547  157.7490 C.3     1  UNL1        0.0310
     31 C         142.1295  142.9660  159.6309 C.ar    1  UNL1       -0.0042
     32 C         142.5737  141.6710  160.2439 C.ar    1  UNL1        0.0021
     33 C         142.2181  140.3698  159.5879 C.ar    1  UNL1       -0.0042
@<TRIPOS>BOND
     1    26    27    1
     2    27    28   ar
     3    28    29   ar
     4    29    30    1
     5    29    31   ar
     6    31    32   ar
     7    32     1    1
     8     1     2   ar
     9     2     3   ar
    10     3     4   ar
    11     4     5   ar
    12     5     7    1
    13     7     8    2
    14     8     9    1
    15     9    10    2
    16    10    11    1
    17    11    12    1
    18    11    13    2
    19    13    14    1
    20    14    15    1
    21    15    16    2
    22     5     6   ar
    23     6    17    1
    24    17    18    1
    25    18    19    1
    26    19    20    1
    27    20    21    1
    28    20    22    1
    29    22    23    1
    30    32    33   ar
    31    33    27   ar
    32     6     1   ar
    33    23    17    1
    34    16     7    1
    35    15     9    1
    36    21    24    1
    37    21    25    1
@<TRIPOS>MOLECULE
*****
 33 37 0 0 0
SMALL
GASTEIGER

@<TRIPOS>ATOM
      1 C         143.3019  141.4537  164.9319 C.ar    1  UNL1        0.0327
      2 C         144.6678  140.8751  164.7091 C.ar    1  UNL1        0.1001
      3 N         145.2836  140.9113  163.3418 N.ar    1  UNL1       -0.2420
      4 C         144.5335  141.5260  162.1974 C.ar    1  UNL1        0.1078
      5 C         143.1677  142.1045  162.4203 C.ar    1  UNL1        0.1207
      6 C         142.5519  142.0683  163.7876 C.ar    1  UNL1        0.0583
      7 C         142.4176  142.7192  161.2759 C.2     1  UNL1        0.3780
      8 N         142.5305  144.1404  160.8096 N.2     1  UNL1       -0.0308
      9 C         141.6056  144.3201  159.6424 C.2     1  UNL1        0.2318
     10 C         141.2983  145.5075  158.7790 C.2     1  UNL1        0.0456
     11 C         140.3066  145.3848  157.6604 C.2     1  UNL1       -0.0219
     12 C         139.9992  146.5722  156.7968 C.3     1  UNL1        0.0308
     13 C         139.6221  144.0746  157.4053 C.2     1  UNL1       -0.0214
     14 C         139.9294  142.8873  158.2687 C.3     1  UNL1        0.1034
     15 C         140.9212  143.0100  159.3873 C.2     1  UNL1        0.2178
     16 N         141.4230  142.0206  160.3969 N.2     1  UNL1       -0.0346
     17 N         141.1860  142.6469  164.0105 N.pl3   1  UNL1       -0.3071
     18 C         141.0395  144.0592  164.4942 C.3     1  UNL1        0.0921
     19 C         139.6737  144.6378  164.7171 C.3     1  UNL1        0.0369
     20 C         138.4542  143.8040  164.4564 C.3     1  UNL1        0.0542
     21 N         137.0884  144.3826  164.6793 N.3     1  UNL1       -0.3221
     22 C         138.6007  142.3917  163.9727 C.3     1  UNL1        0.0369
     23 C         139.9666  141.8132  163.7497 C.3     1  UNL1        0.0921
     24 H         137.1759  145.3451  165.0054 H       1  UNL1        0.1188
     25 H         136.5952  143.8296  165.3803 H       1  UNL1        0.1188
     26 C         143.3972  142.8084  169.9475 C.3     1  UNL1        0.0310
     27 C         142.7337  142.0949  168.8070 C.ar    1  UNL1       -0.0222
     28 C         141.4544  141.3453  169.0338 C.ar    1  UNL1       -0.0085
     29 C         140.7909  140.6318  167.8933 C.ar    1  UNL1       -0.0222
     30 C         139.5116  139.8822  168.1201 C.3     1  UNL1        0.0310
     31 C         141.4067  140.6679  166.5260 C.ar    1  UNL1       -0.0042
     32 C         142.6860  141.4175  166.2993 C.ar    1  UNL1        0.0021
     33 C         143.3495  142.1310  167.4397 C.ar    1  UNL1       -0.0042
@<TRIPOS>BOND
     1    26    27    1
     2    27    28   ar
     3    28    29   ar
     4    29    30    1
     5    29    31   ar
     6    31    32   ar
     7    32     1    1
     8     1     2   ar
     9     2     3   ar
    10     3     4   ar
    11     4     5   ar
    12     5     7    1
    13     7     8    2
    14     8     9    1
    15     9    10    2
    16    10    11    1
    17    11    12    1
    18    11    13    2
    19    13    14    1
    20    14    15    1
    21    15    16    2
    22     5     6   ar
    23     6    17    1
    24    17    18    1
    25    18    19    1
    26    19    20    1
    27    20    21    1
    28    20    22    1
    29    22    23    1
    30    32    33   ar
    31    33    27   ar
    32     6     1   ar
    33    23    17    1
    34    16     7    1
    35    15     9    1
    36    21    24    1
    37    21    25    1
@<TRIPOS>MOLECULE
*****
 33 37 0 0 0
SMALL
GASTEIGER

@<TRIPOS>ATOM
      1 C         139.7715  139.7548  166.9936 C.ar    1  UNL1        0.0327
      2 C         138.4823  139.0451  167.2838 C.ar    1  UNL1        0.1001
      3 N         137.7766  138.2957  166.1928 N.ar    1  UNL1       -0.2420
      4 C         138.3602  138.2559  164.8116 C.ar    1  UNL1        0.1078
      5 C         139.6494  138.9656  164.5213 C.ar    1  UNL1        0.1207
      6 C         140.3550  139.7150  165.6123 C.ar    1  UNL1        0.0583
      7 C         140.2329  138.9258  163.1400 C.2     1  UNL1        0.3780
      8 N         139.8324  139.7993  161.9882 N.2     1  UNL1       -0.0308
      9 C         140.6714  139.4189  160.8044 C.2     1  UNL1        0.2318
     10 C         140.7172  139.9387  159.3981 C.2     1  UNL1        0.0456
     11 C         141.6820  139.3500  158.4120 C.2     1  UNL1       -0.0219
     12 C         141.7279  139.8699  157.0056 C.3     1  UNL1        0.0308
     13 C         142.6011  138.2415  158.8322 C.2     1  UNL1       -0.0214
     14 C         142.5552  137.7216  160.2384 C.3     1  UNL1        0.1034
     15 C         141.5904  138.3104  161.2245 C.2     1  UNL1        0.2178
     16 N         141.3194  138.0056  162.6680 N.2     1  UNL1       -0.0346
     17 N         141.6443  140.4247  165.3221 N.pl3   1  UNL1       -0.3071
     18 C         142.9406  139.6710  165.3610 C.3     1  UNL1        0.0921
     19 C         144.2298  140.3806  165.0708 C.3     1  UNL1        0.0369
     20 C         144.2228  141.8441  164.7416 C.3     1  UNL1        0.0542
     21 N         145.5120  142.5537  164.4514 N.3     1  UNL1       -0.3221
     22 C         142.9265  142.5979  164.7027 C.3     1  UNL1        0.0369
     23 C         141.6372  141.8881  164.9929 C.3     1  UNL1        0.0921
     24 H         146.2866  141.8939  164.5219 H       1  UNL1        0.1188
     25 H         145.6447  143.3072  165.1260 H       1  UNL1        0.1188
     26 C         140.4420  144.1013  169.7610 C.3     1  UNL1        0.0310
     27 C         140.8125  142.6775  169.4683 C.ar    1  UNL1       -0.0222
     28 C         141.8887  142.0032  170.2666 C.ar    1  UNL1       -0.0085
     29 C         142.2591  140.5795  169.9739 C.ar    1  UNL1       -0.0222
     30 C         143.3352  139.9052  170.7722 C.3     1  UNL1        0.0310
     31 C         141.5534  139.8300  168.8829 C.ar    1  UNL1       -0.0042
     32 C         140.4772  140.5043  168.0846 C.ar    1  UNL1        0.0021
     33 C         140.1068  141.9280  168.3773 C.ar    1  UNL1       -0.0042
@<TRIPOS>BOND
     1    26    27    1
     2    27    28   ar
     3    28    29   ar
     4    29    30    1
     5    29    31   ar
     6    31    32   ar
     7    32     1    1
     8     1     2   ar
     9     2     3   ar
    10     3     4   ar
    11     4     5   ar
    12     5     7    1
    13     7     8    2
    14     8     9    1
    15     9    10    2
    16    10    11    1
    17    11    12    1
    18    11    13    2
    19    13    14    1
    20    14    15    1
    21    15    16    2
    22     5     6   ar
    23     6    17    1
    24    17    18    1
    25    18    19    1
    26    19    20    1
    27    20    21    1
    28    20    22    1
    29    22    23    1
    30    32    33   ar
    31    33    27   ar
    32     6     1   ar
    33    23    17    1
    34    16     7    1
    35    15     9    1
    36    21    24    1
    37    21    25    1
