@<TRIPOS>MOLECULE
*****
 34 38 0 0 0
SMALL
GASTEIGER

@<TRIPOS>ATOM
      1 N         139.5221  138.3229  162.7756 N.3     1  UNL1       -0.2720
      2 C         140.8319  137.6071  162.9254 C.3     1  UNL1        0.0768
      3 C         141.8235  137.6964  164.0474 C.3     1  UNL1        0.0434
      4 C         141.7503  138.5234  165.2966 C.ar    1  UNL1       -0.0217
      5 C         142.9585  138.3179  166.1614 C.ar    1  UNL1       -0.0028
      6 C         143.0839  139.0544  167.4621 C.ar    1  UNL1        0.0220
      7 C         142.0010  139.9965  167.8981 C.ar    1  UNL1        0.1185
      8 N         141.8485  140.8546  169.1188 N.ar    1  UNL1       -0.2050
      9 C         140.5461  141.5905  169.0085 C.ar    1  UNL1        0.3031
     10 O         139.8935  141.1872  167.7195 O.2     1  UNL1       -0.4321
     11 C         140.7927  140.2020  167.0332 C.ar    1  UNL1        0.1604
     12 C         140.6674  139.4655  165.7325 C.ar    1  UNL1        0.0114
     13 C         139.3903  139.8131  165.0267 C.3     1  UNL1        0.0465
     14 C         138.8806  139.3045  163.7108 C.3     1  UNL1        0.0769
     15 C         139.9932  142.5596  170.0110 C.3     1  UNL1        0.4696
     16 F         139.4403  143.5287  171.0137 F       1  UNL1       -0.1619
     17 F         141.1414  143.4879  169.7469 F       1  UNL1       -0.1619
     18 F         138.8450  141.6312  170.2752 F       1  UNL1       -0.1619
     19 C         138.7522  138.0162  161.5253 C.3     1  UNL1        0.0730
     20 C         137.4269  138.6745  161.2801 C.3     1  UNL1        0.0294
     21 C         137.3343  139.8529  160.3565 C.3     1  UNL1        0.0666
     22 S         138.5841  140.5238  159.8690 S.3     1  UNL1       -0.0756
     23 C         140.5226  143.2931  161.7765 C.ar    1  UNL1        0.2029
     24 N         139.2338  143.9981  161.4728 N.ar    1  UNL1       -0.1250
     25 N         138.3509  143.0465  160.7214 N.ar    1  UNL1       -0.1220
     26 C         139.0939  141.7534  160.5605 C.ar    1  UNL1        0.1933
     27 N         140.4361  141.9059  161.2126 N.ar    1  UNL1       -0.2860
     28 C         141.5043  140.8554  161.2876 C.3     1  UNL1        0.1341
     29 C         140.9040  143.3619  165.0167 C.3     1  UNL1        0.0556
     30 C         141.8678  143.9052  164.0038 C.ar    1  UNL1        0.1001
     31 N         143.1760  144.5754  164.3023 N.ar    1  UNL1       -0.2085
     32 C         143.8093  144.9580  162.9975 C.ar    1  UNL1        0.2849
     33 O         142.8924  144.5243  161.8925 O.2     1  UNL1       -0.4283
     34 C         141.6924  143.8735  162.5143 C.ar    1  UNL1        0.1964
@<TRIPOS>BOND
     1    29    30    1
     2    30    31   ar
     3    31    32   ar
     4    32    33   ar
     5    33    34   ar
     6    34    23    1
     7    23    24   ar
     8    24    25   ar
     9    25    26   ar
    10    26    22    1
    11    22    21    1
    12    21    20    1
    13    20    19    1
    14    19     1    1
    15     1     2    1
    16     2     3    1
    17     3     4    1
    18     4     5   ar
    19     5     6   ar
    20     6     7   ar
    21     7     8   ar
    22     8     9   ar
    23     9    15    1
    24    15    16    1
    25    15    17    1
    26    15    18    1
    27     9    10   ar
    28    10    11   ar
    29    11    12   ar
    30    12    13    1
    31    13    14    1
    32    26    27   ar
    33    27    28    1
    34    34    30   ar
    35    27    23   ar
    36    14     1    1
    37    12     4   ar
    38    11     7   ar
@<TRIPOS>MOLECULE
*****
 34 38 0 0 0
SMALL
GASTEIGER

@<TRIPOS>ATOM
      1 N         138.9555  144.3827  163.2589 N.3     1  UNL1       -0.2720
      2 C         138.0762  143.2595  162.7947 C.3     1  UNL1        0.0768
      3 C         137.8367  141.9292  163.4451 C.3     1  UNL1        0.0434
      4 C         138.4172  141.3936  164.7202 C.ar    1  UNL1       -0.0217
      5 C         137.9131  140.0117  165.0139 C.ar    1  UNL1       -0.0028
      6 C         138.3725  139.2921  166.2472 C.ar    1  UNL1        0.0220
      7 C         139.3359  139.9544  167.1870 C.ar    1  UNL1        0.1185
      8 N         139.9614  139.4959  168.4710 N.ar    1  UNL1       -0.2050
      9 C         140.8520  140.5945  168.9709 C.ar    1  UNL1        0.3031
     10 O         140.7770  141.7320  167.9959 O.2     1  UNL1       -0.4321
     11 C         139.8400  141.3363  166.8934 C.ar    1  UNL1        0.1604
     12 C         139.3806  142.0559  165.6600 C.ar    1  UNL1        0.0114
     13 C         140.0015  143.4175  165.5567 C.3     1  UNL1        0.0465
     14 C         139.8122  144.4530  164.4880 C.3     1  UNL1        0.0769
     15 C         141.6735  140.5615  170.2255 C.3     1  UNL1        0.4696
     16 F         142.4951  140.5285  171.4801 F       1  UNL1       -0.1619
     17 F         140.4185  140.5371  171.0466 F       1  UNL1       -0.1619
     18 F         142.9286  140.5859  169.4044 F       1  UNL1       -0.1619
     19 C         138.9813  145.5960  162.3773 C.3     1  UNL1        0.0730
     20 C         140.2094  145.9164  161.5780 C.3     1  UNL1        0.0294
     21 C         140.4581  145.2194  160.2731 C.3     1  UNL1        0.0666
     22 S         141.6660  144.3457  160.1078 S.3     1  UNL1       -0.0756
     23 C         142.9741  142.3440  163.1653 C.ar    1  UNL1        0.2029
     24 N         143.8895  143.5323  163.1836 N.ar    1  UNL1       -0.1250
     25 N         143.5108  144.4267  162.0405 N.ar    1  UNL1       -0.1220
     26 C         142.3615  143.7912  161.3157 C.ar    1  UNL1        0.1933
     27 N         142.0299  142.5042  162.0109 N.ar    1  UNL1       -0.2860
     28 C         140.9444  141.5454  161.6202 C.3     1  UNL1        0.1341
     29 C         143.5505  142.5489  166.3708 C.3     1  UNL1        0.0556
     30 C         143.2637  141.2913  165.6051 C.ar    1  UNL1        0.1001
     31 N         143.1916  139.9071  166.1785 N.ar    1  UNL1       -0.2085
     32 C         142.8820  138.9575  165.0594 C.ar    1  UNL1        0.2849
     33 O         142.7629  139.7548  163.7944 O.2     1  UNL1       -0.4283
     34 C         142.9988  141.1972  164.1317 C.ar    1  UNL1        0.1964
@<TRIPOS>BOND
     1    29    30    1
     2    30    31   ar
     3    31    32   ar
     4    32    33   ar
     5    33    34   ar
     6    34    23    1
     7    23    24   ar
     8    24    25   ar
     9    25    26   ar
    10    26    22    1
    11    22    21    1
    12    21    20    1
    13    20    19    1
    14    19     1    1
    15     1     2    1
    16     2     3    1
    17     3     4    1
    18     4     5   ar
    19     5     6   ar
    20     6     7   ar
    21     7     8   ar
    22     8     9   ar
    23     9    15    1
    24    15    16    1
    25    15    17    1
    26    15    18    1
    27     9    10   ar
    28    10    11   ar
    29    11    12   ar
    30    12    13    1
    31    13    14    1
    32    26    27   ar
    33    27    28    1
    34    34    30   ar
    35    27    23   ar
    36    14     1    1
    37    12     4   ar
    38    11     7   ar
@<TRIPOS>MOLECULE
*****
 34 38 0 0 0
SMALL
GASTEIGER

@<TRIPOS>ATOM
      1 N         142.7582  138.1932  162.8127 N.3     1  UNL1       -0.2720
      2 C         141.4116  137.6137  162.4946 C.3     1  UNL1        0.0768
      3 C         140.1619  137.6416  163.3240 C.3     1  UNL1        0.0434
      4 C         139.9503  138.2557  164.6759 C.ar    1  UNL1       -0.0217
      5 C         138.5422  138.0573  165.1536 C.ar    1  UNL1       -0.0028
      6 C         138.1198  138.5969  166.4879 C.ar    1  UNL1        0.0220
      7 C         139.1054  139.3349  167.3447 C.ar    1  UNL1        0.1185
      8 N         138.9796  139.9751  168.6953 N.ar    1  UNL1       -0.2050
      9 C         140.3099  140.5692  169.0525 C.ar    1  UNL1        0.3031
     10 O         141.2579  140.2961  167.9225 O.2     1  UNL1       -0.4321
     11 C         140.5135  139.5333  166.8670 C.ar    1  UNL1        0.1604
     12 C         140.9359  138.9937  165.5327 C.ar    1  UNL1        0.0114
     13 C         142.3766  139.2998  165.2489 C.3     1  UNL1        0.0465
     14 C         143.1876  138.9435  164.0384 C.3     1  UNL1        0.0769
     15 C         140.6351  141.3067  170.3174 C.3     1  UNL1        0.4696
     16 F         140.9602  142.0444  171.5824 F       1  UNL1       -0.1619
     17 F         141.7900  140.3810  170.5603 F       1  UNL1       -0.1619
     18 F         139.4800  142.2325  170.0745 F       1  UNL1       -0.1619
     19 C         143.8149  137.9962  161.7665 C.3     1  UNL1        0.0730
     20 C         144.0548  139.0571  160.7337 C.3     1  UNL1        0.0294
     21 C         144.4467  140.4416  161.1577 C.3     1  UNL1        0.0666
     22 S         143.8733  141.6333  160.4497 S.3     1  UNL1       -0.0756
     23 C         141.1601  143.6291  162.3785 C.ar    1  UNL1        0.2029
     24 N         142.2799  144.6264  162.3385 N.ar    1  UNL1       -0.1250
     25 N         143.4325  144.0001  161.6111 N.ar    1  UNL1       -0.1220
     26 C         143.0251  142.6158  161.2016 C.ar    1  UNL1        0.1933
     27 N         141.6207  142.3866  161.6758 N.ar    1  UNL1       -0.2860
     28 C         140.8178  141.1345  161.4816 C.3     1  UNL1        0.1341
     29 C         140.4040  143.0801  165.5053 C.3     1  UNL1        0.0556
     30 C         139.4682  143.5855  164.4475 C.ar    1  UNL1        0.1001
     31 N         138.0206  143.9272  164.6413 N.ar    1  UNL1       -0.2085
     32 C         137.4735  144.3908  163.3238 C.ar    1  UNL1        0.2849
     33 O         138.5829  144.3356  162.3158 O.2     1  UNL1       -0.4283
     34 C         139.8158  143.8378  163.0102 C.ar    1  UNL1        0.1964
@<TRIPOS>BOND
     1    29    30    1
     2    30    31   ar
     3    31    32   ar
     4    32    33   ar
     5    33    34   ar
     6    34    23    1
     7    23    24   ar
     8    24    25   ar
     9    25    26   ar
    10    26    22    1
    11    22    21    1
    12    21    20    1
    13    20    19    1
    14    19     1    1
    15     1     2    1
    16     2     3    1
    17     3     4    1
    18     4     5   ar
    19     5     6   ar
    20     6     7   ar
    21     7     8   ar
    22     8     9   ar
    23     9    15    1
    24    15    16    1
    25    15    17    1
    26    15    18    1
    27     9    10   ar
    28    10    11   ar
    29    11    12   ar
    30    12    13    1
    31    13    14    1
    32    26    27   ar
    33    27    28    1
    34    34    30   ar
    35    27    23   ar
    36    14     1    1
    37    12     4   ar
    38    11     7   ar
@<TRIPOS>MOLECULE
*****
 34 38 0 0 0
SMALL
GASTEIGER

@<TRIPOS>ATOM
      1 N         142.8819  138.4290  162.9480 N.3     1  UNL1       -0.2720
      2 C         141.4796  137.9123  163.0771 C.3     1  UNL1        0.0768
      3 C         140.4792  138.1832  164.1615 C.3     1  UNL1        0.0434
      4 C         140.6340  139.0377  165.3844 C.ar    1  UNL1       -0.0217
      5 C         139.3845  139.0380  166.2145 C.ar    1  UNL1       -0.0028
      6 C         139.3284  139.8331  167.4852 C.ar    1  UNL1        0.0220
      7 C         140.5218  140.6278  167.9260 C.ar    1  UNL1        0.1185
      8 N         140.7602  141.5008  169.1222 N.ar    1  UNL1       -0.2050
      9 C         142.1570  142.0400  169.0316 C.ar    1  UNL1        0.3031
     10 O         142.7819  141.5003  167.7793 O.2     1  UNL1       -0.4321
     11 C         141.7713  140.6274  167.0960 C.ar    1  UNL1        0.1604
     12 C         141.8274  139.8324  165.8253 C.ar    1  UNL1        0.0114
     13 C         143.1607  139.9688  165.1518 C.3     1  UNL1        0.0465
     14 C         143.6300  139.3442  163.8713 C.3     1  UNL1        0.0769
     15 C         142.8137  142.9579  170.0196 C.3     1  UNL1        0.4696
     16 F         143.4705  143.8757  171.0078 F       1  UNL1       -0.1619
     17 F         141.5522  143.7644  170.1088 F       1  UNL1       -0.1619
     18 F         144.0752  142.1512  169.9305 F       1  UNL1       -0.1619
     19 C         143.6356  137.9698  161.7351 C.3     1  UNL1        0.0730
     20 C         143.5604  138.7592  160.4619 C.3     1  UNL1        0.0294
     21 C         144.2704  140.0761  160.3529 C.3     1  UNL1        0.0666
     22 S         143.5092  141.3085  159.9637 S.3     1  UNL1       -0.0756
     23 C         141.8918  143.4713  162.7515 C.ar    1  UNL1        0.2029
     24 N         143.1533  144.2380  162.4850 N.ar    1  UNL1       -0.1250
     25 N         143.9127  143.5211  161.4083 N.ar    1  UNL1       -0.1220
     26 C         143.1205  142.3114  161.0093 C.ar    1  UNL1        0.1933
     27 N         141.8717  142.2806  161.8394 N.ar    1  UNL1       -0.2860
     28 C         140.7920  141.2416  161.7698 C.3     1  UNL1        0.1341
     29 C         139.5066  145.6569  162.3230 C.3     1  UNL1        0.0556
     30 C         139.7396  144.8366  163.5571 C.ar    1  UNL1        0.1001
     31 N         138.9172  144.8769  164.8108 N.ar    1  UNL1       -0.2085
     32 C         139.5052  143.8973  165.7826 C.ar    1  UNL1        0.2849
     33 O         140.6911  143.2515  165.1295 O.2     1  UNL1       -0.4283
     34 C         140.8360  143.8320  163.7540 C.ar    1  UNL1        0.1964
@<TRIPOS>BOND
     1    29    30    1
     2    30    31   ar
     3    31    32   ar
     4    32    33   ar
     5    33    34   ar
     6    34    23    1
     7    23    24   ar
     8    24    25   ar
     9    25    26   ar
    10    26    22    1
    11    22    21    1
    12    21    20    1
    13    20    19    1
    14    19     1    1
    15     1     2    1
    16     2     3    1
    17     3     4    1
    18     4     5   ar
    19     5     6   ar
    20     6     7   ar
    21     7     8   ar
    22     8     9   ar
    23     9    15    1
    24    15    16    1
    25    15    17    1
    26    15    18    1
    27     9    10   ar
    28    10    11   ar
    29    11    12   ar
    30    12    13    1
    31    13    14    1
    32    26    27   ar
    33    27    28    1
    34    34    30   ar
    35    27    23   ar
    36    14     1    1
    37    12     4   ar
    38    11     7   ar
@<TRIPOS>MOLECULE
*****
 34 38 0 0 0
SMALL
GASTEIGER

@<TRIPOS>ATOM
      1 N         142.6136  138.2076  162.9646 N.3     1  UNL1       -0.2720
      2 C         141.2705  137.6074  162.6710 C.3     1  UNL1        0.0768
      3 C         140.0317  137.6284  163.5168 C.3     1  UNL1        0.0434
      4 C         139.8302  138.2548  164.8646 C.ar    1  UNL1       -0.0217
      5 C         138.4313  138.0436  165.3633 C.ar    1  UNL1       -0.0028
      6 C         138.0197  138.5925  166.6972 C.ar    1  UNL1        0.0220
      7 C         139.0069  139.3526  167.5325 C.ar    1  UNL1        0.1185
      8 N         138.8908  140.0061  168.8777 N.ar    1  UNL1       -0.2050
      9 C         140.2179  140.6211  169.2104 C.ar    1  UNL1        0.3031
     10 O         141.1542  140.3477  168.0708 O.2     1  UNL1       -0.4321
     11 C         140.4058  139.5637  167.0338 C.ar    1  UNL1        0.1604
     12 C         140.8174  139.0148  165.7000 C.ar    1  UNL1        0.0114
     13 C         142.2502  139.3362  165.3935 C.3     1  UNL1        0.0465
     14 C         143.0495  138.9769  164.1761 C.3     1  UNL1        0.0769
     15 C         140.5503  141.3768  170.4627 C.3     1  UNL1        0.4696
     16 F         140.8826  142.1326  171.7151 F       1  UNL1       -0.1619
     17 F         141.8384  140.6171  170.5793 F       1  UNL1       -0.1619
     18 F         139.2621  142.1365  170.3462 F       1  UNL1       -0.1619
     19 C         143.6588  138.0126  161.9065 C.3     1  UNL1        0.0730
     20 C         143.2518  137.8379  160.4734 C.3     1  UNL1        0.0294
     21 C         143.1930  139.0265  159.5602 C.3     1  UNL1        0.0666
     22 S         141.8867  139.4391  158.9494 S.3     1  UNL1       -0.0756
     23 C         139.4592  141.3654  161.2867 C.ar    1  UNL1        0.2029
     24 N         138.6874  140.1021  161.0449 N.ar    1  UNL1       -0.1250
     25 N         139.5028  139.2268  160.1399 N.ar    1  UNL1       -0.1220
     26 C         140.7786  139.9491  159.8224 C.ar    1  UNL1        0.1933
     27 N         140.7516  141.2708  160.5311 N.ar    1  UNL1       -0.2860
     28 C         141.8281  142.3147  160.4913 C.3     1  UNL1        0.1341
     29 C         140.8581  142.3519  164.0651 C.3     1  UNL1        0.0556
     30 C         139.6594  142.9739  163.4121 C.ar    1  UNL1        0.1001
     31 N         138.8933  144.1585  163.9216 N.ar    1  UNL1       -0.2085
     32 C         137.7768  144.4372  162.9594 C.ar    1  UNL1        0.2849
     33 O         137.8529  143.4248  161.8552 O.2     1  UNL1       -0.4283
     34 C         139.0164  142.5204  162.1350 C.ar    1  UNL1        0.1964
@<TRIPOS>BOND
     1    29    30    1
     2    30    31   ar
     3    31    32   ar
     4    32    33   ar
     5    33    34   ar
     6    34    23    1
     7    23    24   ar
     8    24    25   ar
     9    25    26   ar
    10    26    22    1
    11    22    21    1
    12    21    20    1
    13    20    19    1
    14    19     1    1
    15     1     2    1
    16     2     3    1
    17     3     4    1
    18     4     5   ar
    19     5     6   ar
    20     6     7   ar
    21     7     8   ar
    22     8     9   ar
    23     9    15    1
    24    15    16    1
    25    15    17    1
    26    15    18    1
    27     9    10   ar
    28    10    11   ar
    29    11    12   ar
    30    12    13    1
    31    13    14    1
    32    26    27   ar
    33    27    28    1
    34    34    30   ar
    35    27    23   ar
    36    14     1    1
    37    12     4   ar
    38    11     7   ar
@<TRIPOS>MOLECULE
*****
 34 38 0 0 0
SMALL
GASTEIGER

@<TRIPOS>ATOM
      1 N         144.2997  142.2043  162.5956 N.3     1  UNL1       -0.2720
      2 C         144.7603  140.7843  162.7427 C.3     1  UNL1        0.0768
      3 C         144.5072  139.8313  163.8732 C.3     1  UNL1        0.0434
      4 C         143.7311  140.0630  165.1356 C.ar    1  UNL1       -0.0217
      5 C         143.7223  138.8411  166.0056 C.ar    1  UNL1       -0.0028
      6 C         142.9989  138.8610  167.3194 C.ar    1  UNL1        0.0220
      7 C         142.2841  140.1028  167.7634 C.ar    1  UNL1        0.1185
      8 N         141.4918  140.4180  168.9973 N.ar    1  UNL1       -0.2050
      9 C         141.0107  141.8348  168.8901 C.ar    1  UNL1        0.3031
     10 O         141.5059  142.3952  167.5897 O.2     1  UNL1       -0.4321
     11 C         142.2929  141.3248  166.8934 C.ar    1  UNL1        0.1604
     12 C         143.0163  141.3048  165.5795 C.ar    1  UNL1        0.0114
     13 C         142.9012  142.6217  164.8705 C.3     1  UNL1        0.0465
     14 C         143.4724  143.0219  163.5425 C.3     1  UNL1        0.0769
     15 C         140.1804  142.5632  169.9048 C.3     1  UNL1        0.4696
     16 F         139.3501  143.2917  170.9198 F       1  UNL1       -0.1619
     17 F         140.1242  143.7587  169.0007 F       1  UNL1       -0.1619
     18 F         140.2366  141.3677  170.8091 F       1  UNL1       -0.1619
     19 C         144.7225  142.8982  161.3347 C.3     1  UNL1        0.0730
     20 C         144.4005  142.2922  160.0010 C.3     1  UNL1        0.0294
     21 C         143.2407  142.8095  159.2025 C.3     1  UNL1        0.0666
     22 S         141.8906  142.1706  159.3405 S.3     1  UNL1       -0.0756
     23 C         140.8895  140.0931  162.4626 C.ar    1  UNL1        0.2029
     24 N         141.6657  139.0786  161.6760 N.ar    1  UNL1       -0.1250
     25 N         142.1351  139.7334  160.4108 N.ar    1  UNL1       -0.1220
     26 C         141.6492  141.1525  160.4154 C.ar    1  UNL1        0.1933
     27 N         140.8794  141.3748  161.6834 N.ar    1  UNL1       -0.2860
     28 C         140.2159  142.6542  162.0994 C.3     1  UNL1        0.1341
     29 C         140.9467  137.3168  164.1768 C.3     1  UNL1        0.0556
     30 C         140.2643  138.5895  164.5824 C.ar    1  UNL1        0.1001
     31 N         139.4884  138.8096  165.8470 N.ar    1  UNL1       -0.2085
     32 C         138.9826  140.2217  165.8407 C.ar    1  UNL1        0.2849
     33 O         139.4459  140.8744  164.5721 O.2     1  UNL1       -0.4283
     34 C         140.2381  139.8657  163.7944 C.ar    1  UNL1        0.1964
@<TRIPOS>BOND
     1    29    30    1
     2    30    31   ar
     3    31    32   ar
     4    32    33   ar
     5    33    34   ar
     6    34    23    1
     7    23    24   ar
     8    24    25   ar
     9    25    26   ar
    10    26    22    1
    11    22    21    1
    12    21    20    1
    13    20    19    1
    14    19     1    1
    15     1     2    1
    16     2     3    1
    17     3     4    1
    18     4     5   ar
    19     5     6   ar
    20     6     7   ar
    21     7     8   ar
    22     8     9   ar
    23     9    15    1
    24    15    16    1
    25    15    17    1
    26    15    18    1
    27     9    10   ar
    28    10    11   ar
    29    11    12   ar
    30    12    13    1
    31    13    14    1
    32    26    27   ar
    33    27    28    1
    34    34    30   ar
    35    27    23   ar
    36    14     1    1
    37    12     4   ar
    38    11     7   ar
@<TRIPOS>MOLECULE
*****
 34 38 0 0 0
SMALL
GASTEIGER

@<TRIPOS>ATOM
      1 N         141.7814  143.7654  161.6540 N.3     1  UNL1       -0.2720
      2 C         142.8838  144.1648  162.5897 C.3     1  UNL1        0.0768
      3 C         143.1212  143.7155  164.0011 C.3     1  UNL1        0.0434
      4 C         142.3149  142.7560  164.8252 C.ar    1  UNL1       -0.0217
      5 C         142.9015  142.5829  166.1949 C.ar    1  UNL1       -0.0028
      6 C         142.2454  141.6625  167.1809 C.ar    1  UNL1        0.0220
      7 C         141.0026  140.9152  166.7974 C.ar    1  UNL1        0.1185
      8 N         140.1412  139.9460  167.5514 N.ar    1  UNL1       -0.2050
      9 C         139.0222  139.5201  166.6478 C.ar    1  UNL1        0.3031
     10 O         139.1920  140.2261  165.3353 O.2     1  UNL1       -0.4321
     11 C         140.4160  141.0884  165.4277 C.ar    1  UNL1        0.1604
     12 C         141.0721  142.0087  164.4417 C.ar    1  UNL1        0.0114
     13 C         140.3287  142.0364  163.1392 C.3     1  UNL1        0.0465
     14 C         140.6444  142.8183  161.8986 C.3     1  UNL1        0.0769
     15 C         137.9258  138.5573  166.9956 C.3     1  UNL1        0.4696
     16 F         136.8294  137.5945  167.3436 F       1  UNL1       -0.1619
     17 F         138.0817  137.8967  165.6581 F       1  UNL1       -0.1619
     18 F         137.7700  139.2181  168.3333 F       1  UNL1       -0.1619
     19 C         141.8217  144.3968  160.2939 C.3     1  UNL1        0.0730
     20 C         142.0953  143.5541  159.0836 C.3     1  UNL1        0.0294
     21 C         143.5095  143.2705  158.6713 C.3     1  UNL1        0.0666
     22 S         144.1002  141.9115  158.9038 S.3     1  UNL1       -0.0756
     23 C         143.2421  139.9243  162.1256 C.ar    1  UNL1        0.2029
     24 N         144.4741  140.6618  162.5594 N.ar    1  UNL1       -0.1250
     25 N         144.9455  141.4960  161.4053 N.ar    1  UNL1       -0.1220
     26 C         144.0048  141.2740  160.2582 C.ar    1  UNL1        0.1933
     27 N         142.9521  140.3027  160.7034 N.ar    1  UNL1       -0.2860
     28 C         141.8098  139.7982  159.8722 C.3     1  UNL1        0.1341
     29 C         143.9236  139.0319  165.1897 C.3     1  UNL1        0.0556
     30 C         142.7540  138.5649  164.3748 C.ar    1  UNL1        0.1001
     31 N         141.6925  137.6057  164.8252 N.ar    1  UNL1       -0.2085
     32 C         140.7231  137.4231  163.6952 C.ar    1  UNL1        0.2849
     33 O         141.1856  138.2694  162.5463 O.2     1  UNL1       -0.4283
     34 C         142.4408  138.9751  162.9663 C.ar    1  UNL1        0.1964
@<TRIPOS>BOND
     1    29    30    1
     2    30    31   ar
     3    31    32   ar
     4    32    33   ar
     5    33    34   ar
     6    34    23    1
     7    23    24   ar
     8    24    25   ar
     9    25    26   ar
    10    26    22    1
    11    22    21    1
    12    21    20    1
    13    20    19    1
    14    19     1    1
    15     1     2    1
    16     2     3    1
    17     3     4    1
    18     4     5   ar
    19     5     6   ar
    20     6     7   ar
    21     7     8   ar
    22     8     9   ar
    23     9    15    1
    24    15    16    1
    25    15    17    1
    26    15    18    1
    27     9    10   ar
    28    10    11   ar
    29    11    12   ar
    30    12    13    1
    31    13    14    1
    32    26    27   ar
    33    27    28    1
    34    34    30   ar
    35    27    23   ar
    36    14     1    1
    37    12     4   ar
    38    11     7   ar
@<TRIPOS>MOLECULE
*****
 34 38 0 0 0
SMALL
GASTEIGER

@<TRIPOS>ATOM
      1 N         138.5489  142.3907  162.2106 N.3     1  UNL1       -0.2720
      2 C         137.8388  141.0971  162.4798 C.3     1  UNL1        0.0768
      3 C         137.8518  140.2653  163.7281 C.3     1  UNL1        0.0434
      4 C         138.5779  140.5217  165.0152 C.ar    1  UNL1       -0.0217
      5 C         138.3195  139.4347  166.0161 C.ar    1  UNL1       -0.0028
      6 C         138.9537  139.4992  167.3739 C.ar    1  UNL1        0.0220
      7 C         139.8463  140.6507  167.7309 C.ar    1  UNL1        0.1185
      8 N         140.6048  140.9825  168.9817 N.ar    1  UNL1       -0.2050
      9 C         141.3320  142.2745  168.7539 C.ar    1  UNL1        0.3031
     10 O         141.0229  142.7413  167.3623 O.2     1  UNL1       -0.4321
     11 C         140.1047  141.7377  166.7300 C.ar    1  UNL1        0.1604
     12 C         139.4705  141.6732  165.3722 C.ar    1  UNL1        0.0114
     13 C         139.8573  142.8527  164.5301 C.3     1  UNL1        0.0465
     14 C         139.4471  143.1719  163.1230 C.3     1  UNL1        0.0769
     15 C         142.2134  142.9766  169.7439 C.3     1  UNL1        0.4696
     16 F         143.0948  143.6788  170.7339 F       1  UNL1       -0.1619
     17 F         143.3483  142.0662  169.3791 F       1  UNL1       -0.1619
     18 F         141.0785  143.8871  170.1087 F       1  UNL1       -0.1619
     19 C         138.3318  142.9810  160.8488 C.3     1  UNL1        0.0730
     20 C         138.8711  142.2844  159.6348 C.3     1  UNL1        0.0294
     21 C         139.3732  143.0865  158.4709 C.3     1  UNL1        0.0666
     22 S         140.8047  143.5327  158.4294 S.3     1  UNL1       -0.0756
     23 C         143.0310  142.9622  161.5573 C.ar    1  UNL1        0.2029
     24 N         142.6602  144.4061  161.7248 N.ar    1  UNL1       -0.1250
     25 N         141.7812  144.7954  160.5735 N.ar    1  UNL1       -0.1220
     26 C         141.6086  143.5923  159.6944 C.ar    1  UNL1        0.1933
     27 N         142.3810  142.4594  160.3025 N.ar    1  UNL1       -0.2860
     28 C         142.4852  141.0678  159.7523 C.3     1  UNL1        0.1341
     29 C         142.1171  140.3183  163.2380 C.3     1  UNL1        0.0556
     30 C         143.4791  140.9466  163.2548 C.ar    1  UNL1        0.1001
     31 N         144.6602  140.4699  164.0471 N.ar    1  UNL1       -0.2085
     32 C         145.8102  141.3905  163.7643 C.ar    1  UNL1        0.2849
     33 O         145.3398  142.4362  162.7972 O.2     1  UNL1       -0.4283
     34 C         143.8991  142.1619  162.4823 C.ar    1  UNL1        0.1964
@<TRIPOS>BOND
     1    29    30    1
     2    30    31   ar
     3    31    32   ar
     4    32    33   ar
     5    33    34   ar
     6    34    23    1
     7    23    24   ar
     8    24    25   ar
     9    25    26   ar
    10    26    22    1
    11    22    21    1
    12    21    20    1
    13    20    19    1
    14    19     1    1
    15     1     2    1
    16     2     3    1
    17     3     4    1
    18     4     5   ar
    19     5     6   ar
    20     6     7   ar
    21     7     8   ar
    22     8     9   ar
    23     9    15    1
    24    15    16    1
    25    15    17    1
    26    15    18    1
    27     9    10   ar
    28    10    11   ar
    29    11    12   ar
    30    12    13    1
    31    13    14    1
    32    26    27   ar
    33    27    28    1
    34    34    30   ar
    35    27    23   ar
    36    14     1    1
    37    12     4   ar
    38    11     7   ar
@<TRIPOS>MOLECULE
*****
 34 38 0 0 0
SMALL
GASTEIGER

@<TRIPOS>ATOM
      1 N         143.8132  141.5910  160.6863 N.3     1  UNL1       -0.2720
      2 C         144.7014  142.4048  161.5802 C.3     1  UNL1        0.0768
      3 C         144.5751  142.6462  163.0553 C.3     1  UNL1        0.0434
      4 C         143.5295  142.1336  164.0006 C.ar    1  UNL1       -0.0217
      5 C         143.7733  142.6144  165.4005 C.ar    1  UNL1       -0.0028
      6 C         142.8396  142.2145  166.5042 C.ar    1  UNL1        0.0220
      7 C         141.6619  141.3338  166.2082 C.ar    1  UNL1        0.1185
      8 N         140.5780  140.7792  167.0841 N.ar    1  UNL1       -0.2050
      9 C         139.6642  139.9556  166.2258 C.ar    1  UNL1        0.3031
     10 O         140.1834  140.0012  164.8192 O.2     1  UNL1       -0.4321
     11 C         141.4181  140.8530  164.8083 C.ar    1  UNL1        0.1604
     12 C         142.3519  141.2529  163.7046 C.ar    1  UNL1        0.0114
     13 C         141.9291  140.6673  162.3900 C.3     1  UNL1        0.0465
     14 C         142.5795  140.8178  161.0467 C.3     1  UNL1        0.0769
     15 C         138.4452  139.2163  166.6920 C.3     1  UNL1        0.4696
     16 F         137.2262  138.4768  167.1582 F       1  UNL1       -0.1619
     17 F         138.8025  139.5250  168.1157 F       1  UNL1       -0.1619
     18 F         138.0879  138.9075  165.2682 F       1  UNL1       -0.1619
     19 C         144.2116  141.5443  159.2409 C.3     1  UNL1        0.0730
     20 C         144.1790  142.7948  158.4132 C.3     1  UNL1        0.0294
     21 C         142.9204  143.1884  157.6981 C.3     1  UNL1        0.0666
     22 S         142.0400  144.2622  158.2653 S.3     1  UNL1       -0.0756
     23 C         140.2234  143.5920  161.6293 C.ar    1  UNL1        0.2029
     24 N         141.3822  144.4274  162.0870 N.ar    1  UNL1       -0.1250
     25 N         142.2037  144.7801  160.8825 N.ar    1  UNL1       -0.1220
     26 C         141.5527  144.1627  159.6804 C.ar    1  UNL1        0.1933
     27 N         140.3289  143.4285  160.1419 N.ar    1  UNL1       -0.2860
     28 C         139.3774  142.6646  159.2693 C.3     1  UNL1        0.1341
     29 C         139.7360  144.2995  164.7775 C.3     1  UNL1        0.0556
     30 C         138.9241  143.3457  163.9522 C.ar    1  UNL1        0.1001
     31 N         137.7456  142.5497  164.4291 N.ar    1  UNL1       -0.2085
     32 C         137.2413  141.7325  163.2767 C.ar    1  UNL1        0.2849
     33 O         138.1081  142.0235  162.0877 O.2     1  UNL1       -0.4283
     34 C         139.1482  143.0205  162.5050 C.ar    1  UNL1        0.1964
@<TRIPOS>BOND
     1    29    30    1
     2    30    31   ar
     3    31    32   ar
     4    32    33   ar
     5    33    34   ar
     6    34    23    1
     7    23    24   ar
     8    24    25   ar
     9    25    26   ar
    10    26    22    1
    11    22    21    1
    12    21    20    1
    13    20    19    1
    14    19     1    1
    15     1     2    1
    16     2     3    1
    17     3     4    1
    18     4     5   ar
    19     5     6   ar
    20     6     7   ar
    21     7     8   ar
    22     8     9   ar
    23     9    15    1
    24    15    16    1
    25    15    17    1
    26    15    18    1
    27     9    10   ar
    28    10    11   ar
    29    11    12   ar
    30    12    13    1
    31    13    14    1
    32    26    27   ar
    33    27    28    1
    34    34    30   ar
    35    27    23   ar
    36    14     1    1
    37    12     4   ar
    38    11     7   ar
