@<TRIPOS>MOLECULE
*****
 39 43 0 0 0
SMALL
GASTEIGER

@<TRIPOS>ATOM
      1 C         139.1698  138.9270  165.7876 C.3     1  UNL1        0.0545
      2 C         138.3468  139.2473  167.0000 C.3     1  UNL1        0.0162
      3 C         139.2690  139.7688  168.0618 C.3     1  UNL1        0.0100
      4 C         139.3304  140.2891  169.4673 C.3     1  UNL1        0.0096
      5 C         140.7614  140.6128  169.7798 C.3     1  UNL1        0.0767
      6 C         141.5844  140.2925  168.5673 C.3     1  UNL1        0.0177
      7 C         140.6622  139.7709  167.5056 C.3     1  UNL1        0.0708
      8 C         140.6008  139.2507  166.1000 C.3     1  UNL1        0.0243
      9 C         142.0552  139.7730  166.9493 C.2     1  UNL1        0.2250
     10 O         143.0713  138.7992  167.4680 O.2     1  UNL1       -0.2749
     11 N         142.4321  140.7490  165.8743 N.am    1  UNL1       -0.2750
     12 C         143.8251  140.7511  165.3181 C.3     1  UNL1        0.1000
     13 C         144.2020  141.7270  164.2432 C.3     1  UNL1        0.0670
     14 C         143.1858  142.7009  163.7245 C.ar    1  UNL1        0.0583
     15 N         143.5627  143.6769  162.6496 N.ar    1  UNL1       -0.2484
     16 C         142.5466  144.6507  162.1309 C.ar    1  UNL1        0.1023
     17 C         141.1535  144.6486  162.6872 C.ar    1  UNL1        0.0902
     18 C         140.7766  143.6727  163.7621 C.ar    1  UNL1        0.0040
     19 C         141.7928  142.6988  164.2808 C.ar    1  UNL1        0.0113
     20 C         141.4159  141.7229  165.3557 C.3     1  UNL1        0.1213
     21 C         140.1373  145.6225  162.1685 C.3     1  UNL1        0.4200
     22 F         139.1212  146.5963  161.6499 F       1  UNL1       -0.1658
     23 F         139.3666  145.5006  163.4496 F       1  UNL1       -0.1658
     24 F         140.9080  145.7443  160.8874 F       1  UNL1       -0.1658
     25 C         141.2785  141.1605  171.0770 C.2     1  UNL1        0.2189
     26 N         142.5633  140.6414  171.6513 N.am    1  UNL1       -0.3288
     27 O         140.5108  142.2273  171.7998 O.2     1  UNL1       -0.2753
     28 H         143.0671  139.9412  171.1768 H       1  UNL1        0.1449
     29 H         142.9026  141.0009  172.5026 H       1  UNL1        0.1449
     30 N         138.6527  138.3793  164.4904 N.3     1  UNL1       -0.2975
     31 H         139.2318  137.5718  164.2600 H       1  UNL1        0.1232
     32 C         139.3872  138.8539  162.0439 C.3     1  UNL1        0.1591
     33 C         139.3526  139.7244  160.8229 C.3     1  UNL1        0.1729
     34 O         138.5489  140.9909  160.8272 O.3     1  UNL1       -0.3511
     35 C         137.7797  141.3869  162.0527 C.3     1  UNL1        0.1437
     36 C         137.8143  140.5163  163.2737 C.3     1  UNL1        0.0503
     37 C         138.6181  139.2498  163.2693 C.3     1  UNL1        0.0865
     38 C         141.6040  137.5942  162.5427 C.3     1  UNL1        0.1742
     39 O         140.1909  137.5874  162.0396 O.3     1  UNL1       -0.3496
@<TRIPOS>BOND
     1    38    39    1
     2    39    32    1
     3    32    33    1
     4    33    34    1
     5    34    35    1
     6    35    36    1
     7    36    37    1
     8    37    30    1
     9     1    30    1
    10     1     2    1
    11     3     2    1
    12     3     4    1
    13     4     5    1
    14     5    25    1
    15    25    26   am
    16    25    27    2
    17     5     6    1
    18     6     7    1
    19     7     9    1
    20     9    10    2
    21     9    11   am
    22    11    12    1
    23    12    13    1
    24    13    14    1
    25    14    15   ar
    26    15    16   ar
    27    16    17   ar
    28    17    21    1
    29    21    22    1
    30    21    23    1
    31    21    24    1
    32    17    18   ar
    33    18    19   ar
    34    19    20    1
    35     7     8    1
    36    37    32    1
    37     8     1    1
    38     7     3    1
    39    20    11    1
    40    19    14   ar
    41    30    31    1
    42    26    28    1
    43    26    29    1
@<TRIPOS>MOLECULE
*****
 39 43 0 0 0
SMALL
GASTEIGER

@<TRIPOS>ATOM
      1 C         139.2650  138.8074  165.9797 C.3     1  UNL1        0.0545
      2 C         138.4329  139.2376  167.1512 C.3     1  UNL1        0.0162
      3 C         139.3346  139.9269  168.1320 C.3     1  UNL1        0.0100
      4 C         139.3776  140.6187  169.4622 C.3     1  UNL1        0.0096
      5 C         140.7936  141.0421  169.7189 C.3     1  UNL1        0.0767
      6 C         141.6256  140.6118  168.5474 C.3     1  UNL1        0.0177
      7 C         140.7240  139.9226  167.5666 C.3     1  UNL1        0.0708
      8 C         140.6809  139.2307  166.2364 C.3     1  UNL1        0.0243
      9 C         142.1133  139.9183  167.0012 C.2     1  UNL1        0.2250
     10 O         143.1371  138.9603  167.5343 O.2     1  UNL1       -0.2749
     11 N         142.4789  140.8721  165.9027 N.am    1  UNL1       -0.2750
     12 C         143.8683  140.8678  165.3373 C.3     1  UNL1        0.1000
     13 C         144.2338  141.8215  164.2387 C.3     1  UNL1        0.0670
     14 C         143.2101  142.7794  163.7056 C.ar    1  UNL1        0.0583
     15 N         143.5757  143.7332  162.6071 N.ar    1  UNL1       -0.2484
     16 C         142.5520  144.6912  162.0739 C.ar    1  UNL1        0.1023
     17 C         141.1626  144.6954  162.6394 C.ar    1  UNL1        0.0902
     18 C         140.7970  143.7417  163.7379 C.ar    1  UNL1        0.0040
     19 C         141.8208  142.7837  164.2710 C.ar    1  UNL1        0.0113
     20 C         141.4552  141.8300  165.3695 C.3     1  UNL1        0.1213
     21 C         140.1388  145.6534  162.1063 C.3     1  UNL1        0.4200
     22 F         139.1151  146.6114  161.5732 F       1  UNL1       -0.1658
     23 F         139.3686  145.5440  163.3888 F       1  UNL1       -0.1658
     24 F         140.9091  145.7628  160.8238 F       1  UNL1       -0.1658
     25 C         141.2902  141.7682  170.9339 C.2     1  UNL1        0.2189
     26 N         142.7435  142.1190  171.0562 N.am    1  UNL1       -0.3288
     27 O         140.3336  142.1435  172.0266 O.2     1  UNL1       -0.2753
     28 H         143.3713  141.8727  170.3390 H       1  UNL1        0.1449
     29 H         143.0694  142.5956  171.8536 H       1  UNL1        0.1449
     30 N         138.7683  138.0813  164.7647 N.3     1  UNL1       -0.2975
     31 H         138.8064  137.0852  164.9809 H       1  UNL1        0.1232
     32 C         138.8956  139.2118  162.4290 C.3     1  UNL1        0.1591
     33 C         139.5871  139.3955  161.1106 C.3     1  UNL1        0.1729
     34 O         140.8429  138.6324  160.8096 O.3     1  UNL1       -0.3511
     35 C         141.4072  137.6854  161.8270 C.3     1  UNL1        0.1437
     36 C         140.7156  137.5017  163.1453 C.3     1  UNL1        0.0503
     37 C         139.4598  138.2650  163.4463 C.3     1  UNL1        0.0865
     38 C         137.7201  141.3257  163.3777 C.3     1  UNL1        0.1742
     39 O         137.6399  139.9750  162.7300 O.3     1  UNL1       -0.3496
@<TRIPOS>BOND
     1    38    39    1
     2    39    32    1
     3    32    33    1
     4    33    34    1
     5    34    35    1
     6    35    36    1
     7    36    37    1
     8    37    30    1
     9     1    30    1
    10     1     2    1
    11     3     2    1
    12     3     4    1
    13     4     5    1
    14     5    25    1
    15    25    26   am
    16    25    27    2
    17     5     6    1
    18     6     7    1
    19     7     9    1
    20     9    10    2
    21     9    11   am
    22    11    12    1
    23    12    13    1
    24    13    14    1
    25    14    15   ar
    26    15    16   ar
    27    16    17   ar
    28    17    21    1
    29    21    22    1
    30    21    23    1
    31    21    24    1
    32    17    18   ar
    33    18    19   ar
    34    19    20    1
    35     7     8    1
    36    37    32    1
    37     8     1    1
    38     7     3    1
    39    20    11    1
    40    19    14   ar
    41    30    31    1
    42    26    28    1
    43    26    29    1
@<TRIPOS>MOLECULE
*****
 39 43 0 0 0
SMALL
GASTEIGER

@<TRIPOS>ATOM
      1 C         139.6433  138.0836  164.4265 C.3     1  UNL1        0.0545
      2 C         138.4749  138.2197  165.3572 C.3     1  UNL1        0.0162
      3 C         138.9492  138.9168  166.5978 C.3     1  UNL1        0.0100
      4 C         138.5204  139.4317  167.9397 C.3     1  UNL1        0.0096
      5 C         139.7169  140.0447  168.6051 C.3     1  UNL1        0.0767
      6 C         140.8853  139.9086  167.6743 C.3     1  UNL1        0.0177
      7 C         140.4109  139.2115  166.4338 C.3     1  UNL1        0.0708
      8 C         140.8398  138.6965  165.0918 C.3     1  UNL1        0.0243
      9 C         141.8724  139.5062  166.2697 C.2     1  UNL1        0.2250
     10 O         142.8942  138.6068  166.8998 O.2     1  UNL1       -0.2749
     11 N         142.3123  140.7003  165.4755 N.am    1  UNL1       -0.2750
     12 C         143.7738  140.9950  165.3115 C.3     1  UNL1        0.1000
     13 C         144.2136  142.1891  164.5174 C.3     1  UNL1        0.0670
     14 C         143.1918  143.0885  163.8873 C.ar    1  UNL1        0.0583
     15 N         143.6317  144.2827  163.0931 N.ar    1  UNL1       -0.2484
     16 C         142.6099  145.1821  162.4630 C.ar    1  UNL1        0.1023
     17 C         141.1483  144.8873  162.6271 C.ar    1  UNL1        0.0902
     18 C         140.7085  143.6932  163.4213 C.ar    1  UNL1        0.0040
     19 C         141.7303  142.7938  164.0513 C.ar    1  UNL1        0.0113
     20 C         141.2905  141.5997  164.8455 C.3     1  UNL1        0.1213
     21 C         140.1265  145.7868  161.9970 C.3     1  UNL1        0.4200
     22 F         139.1047  146.6862  161.3670 F       1  UNL1       -0.1658
     23 F         140.9617  145.8644  160.7535 F       1  UNL1       -0.1658
     24 F         139.2913  145.7091  163.2406 F       1  UNL1       -0.1658
     25 C         139.7407  140.6819  169.9628 C.2     1  UNL1        0.2189
     26 N         139.8856  139.8299  171.1888 N.am    1  UNL1       -0.3288
     27 O         139.6198  142.1712  170.0946 O.2     1  UNL1       -0.2753
     28 H         139.9650  138.8524  171.1023 H       1  UNL1        0.1449
     29 H         139.9012  140.2481  172.0799 H       1  UNL1        0.1449
     30 N         139.6194  137.4463  163.0687 N.3     1  UNL1       -0.2975
     31 H         140.5604  137.0946  162.8919 H       1  UNL1        0.1232
     32 C         140.1677  138.3784  160.7064 C.3     1  UNL1        0.1591
     33 C         139.7748  139.1867  159.5054 C.3     1  UNL1        0.1729
     34 O         138.4407  139.8711  159.4657 O.3     1  UNL1       -0.3511
     35 C         137.4993  139.7472  160.6271 C.3     1  UNL1        0.1437
     36 C         137.8923  138.9390  161.8281 C.3     1  UNL1        0.0503
     37 C         139.2265  138.2546  161.8677 C.3     1  UNL1        0.0865
     38 C         142.7501  138.4963  160.9667 C.3     1  UNL1        0.1742
     39 O         141.5019  137.6941  160.7461 O.3     1  UNL1       -0.3496
@<TRIPOS>BOND
     1    38    39    1
     2    39    32    1
     3    32    33    1
     4    33    34    1
     5    34    35    1
     6    35    36    1
     7    36    37    1
     8    37    30    1
     9     1    30    1
    10     1     2    1
    11     3     2    1
    12     3     4    1
    13     4     5    1
    14     5    25    1
    15    25    26   am
    16    25    27    2
    17     5     6    1
    18     6     7    1
    19     7     9    1
    20     9    10    2
    21     9    11   am
    22    11    12    1
    23    12    13    1
    24    13    14    1
    25    14    15   ar
    26    15    16   ar
    27    16    17   ar
    28    17    21    1
    29    21    22    1
    30    21    23    1
    31    21    24    1
    32    17    18   ar
    33    18    19   ar
    34    19    20    1
    35     7     8    1
    36    37    32    1
    37     8     1    1
    38     7     3    1
    39    20    11    1
    40    19    14   ar
    41    30    31    1
    42    26    28    1
    43    26    29    1
@<TRIPOS>MOLECULE
*****
 39 43 0 0 0
SMALL
GASTEIGER

@<TRIPOS>ATOM
      1 C         138.7887  140.1371  165.3869 C.3     1  UNL1        0.0545
      2 C         139.4856  139.1856  166.3137 C.3     1  UNL1        0.0162
      3 C         140.4986  139.9633  167.1006 C.3     1  UNL1        0.0100
      4 C         141.5554  139.8559  168.1596 C.3     1  UNL1        0.0096
      5 C         142.1376  141.2217  168.3737 C.3     1  UNL1        0.0767
      6 C         141.4406  142.1731  167.4469 C.3     1  UNL1        0.0177
      7 C         140.4277  141.3955  166.6601 C.3     1  UNL1        0.0708
      8 C         139.3709  141.5028  165.6010 C.3     1  UNL1        0.0243
      9 C         140.3567  142.8275  166.2196 C.2     1  UNL1        0.2250
     10 O         139.7694  143.8643  167.1308 O.2     1  UNL1       -0.2749
     11 N         140.8731  143.2230  164.8679 N.am    1  UNL1       -0.2750
     12 C         140.8021  144.6550  164.4274 C.3     1  UNL1        0.1000
     13 C         141.3185  145.0504  163.0757 C.3     1  UNL1        0.0670
     14 C         141.9058  144.0136  162.1645 C.ar    1  UNL1        0.0583
     15 N         142.4221  144.4091  160.8128 N.ar    1  UNL1       -0.2484
     16 C         143.0094  143.3723  159.9016 C.ar    1  UNL1        0.1023
     17 C         143.0803  141.9402  160.3422 C.ar    1  UNL1        0.0902
     18 C         142.5640  141.5448  161.6938 C.ar    1  UNL1        0.0040
     19 C         141.9767  142.5816  162.6050 C.ar    1  UNL1        0.0113
     20 C         141.4604  142.1862  163.9567 C.3     1  UNL1        0.1213
     21 C         143.6676  140.9034  159.4310 C.3     1  UNL1        0.4200
     22 F         144.2549  139.8667  158.5198 F       1  UNL1       -0.1658
     23 F         144.1767  140.1457  160.6212 F       1  UNL1       -0.1658
     24 F         143.1586  141.6612  158.2407 F       1  UNL1       -0.1658
     25 C         143.2258  141.5740  169.3442 C.2     1  UNL1        0.2189
     26 N         143.5125  140.6734  170.5089 N.am    1  UNL1       -0.3288
     27 O         144.0272  142.8270  169.1499 O.2     1  UNL1       -0.2753
     28 H         142.9865  139.8510  170.6365 H       1  UNL1        0.1449
     29 H         144.2267  140.9047  171.1459 H       1  UNL1        0.1449
     30 N         137.7005  139.7847  164.4164 N.3     1  UNL1       -0.2975
     31 H         137.2857  138.9120  164.7432 H       1  UNL1        0.1232
     32 C         137.7453  140.6929  161.9827 C.3     1  UNL1        0.1591
     33 C         138.0686  140.5015  160.5305 C.3     1  UNL1        0.1729
     34 O         138.6703  139.2106  160.0599 O.3     1  UNL1       -0.3511
     35 C         138.9488  138.1111  161.0414 C.3     1  UNL1        0.1437
     36 C         138.6256  138.3024  162.4936 C.3     1  UNL1        0.0503
     37 C         138.0238  139.5934  162.9642 C.3     1  UNL1        0.0865
     38 C         137.9628  143.2403  162.4448 C.3     1  UNL1        0.1742
     39 O         137.1436  141.9837  162.4533 O.3     1  UNL1       -0.3496
@<TRIPOS>BOND
     1    38    39    1
     2    39    32    1
     3    32    33    1
     4    33    34    1
     5    34    35    1
     6    35    36    1
     7    36    37    1
     8    37    30    1
     9     1    30    1
    10     1     2    1
    11     3     2    1
    12     3     4    1
    13     4     5    1
    14     5    25    1
    15    25    26   am
    16    25    27    2
    17     5     6    1
    18     6     7    1
    19     7     9    1
    20     9    10    2
    21     9    11   am
    22    11    12    1
    23    12    13    1
    24    13    14    1
    25    14    15   ar
    26    15    16   ar
    27    16    17   ar
    28    17    21    1
    29    21    22    1
    30    21    23    1
    31    21    24    1
    32    17    18   ar
    33    18    19   ar
    34    19    20    1
    35     7     8    1
    36    37    32    1
    37     8     1    1
    38     7     3    1
    39    20    11    1
    40    19    14   ar
    41    30    31    1
    42    26    28    1
    43    26    29    1
@<TRIPOS>MOLECULE
*****
 39 43 0 0 0
SMALL
GASTEIGER

@<TRIPOS>ATOM
      1 C         138.9566  142.9325  165.2450 C.3     1  UNL1        0.0545
      2 C         139.8767  143.6145  166.2136 C.3     1  UNL1        0.0162
      3 C         140.5605  142.5560  167.0273 C.3     1  UNL1        0.0100
      4 C         141.5517  142.3232  168.1287 C.3     1  UNL1        0.0096
      5 C         141.6668  140.8432  168.3437 C.3     1  UNL1        0.0767
      6 C         140.7467  140.1611  167.3751 C.3     1  UNL1        0.0177
      7 C         140.0630  141.2197  166.5615 C.3     1  UNL1        0.0708
      8 C         139.0717  141.4524  165.4600 C.3     1  UNL1        0.0243
      9 C         139.5655  139.8835  166.0956 C.2     1  UNL1        0.2250
     10 O         138.6185  139.0957  166.9516 O.2     1  UNL1       -0.2749
     11 N         140.0149  139.3350  164.7738 N.am    1  UNL1       -0.2750
     12 C         139.5174  137.9988  164.3080 C.3     1  UNL1        0.1000
     13 C         139.9668  137.4504  162.9862 C.3     1  UNL1        0.0670
     14 C         140.9137  138.2381  162.1302 C.ar    1  UNL1        0.0583
     15 N         141.3632  137.6896  160.8083 N.ar    1  UNL1       -0.2484
     16 C         142.3101  138.4774  159.9523 C.ar    1  UNL1        0.1023
     17 C         142.8076  139.8137  160.4182 C.ar    1  UNL1        0.0902
     18 C         142.3582  140.3621  161.7400 C.ar    1  UNL1        0.0040
     19 C         141.4113  139.5743  162.5960 C.ar    1  UNL1        0.0113
     20 C         140.9618  140.1228  163.9178 C.3     1  UNL1        0.1213
     21 C         143.7546  140.6014  159.5622 C.3     1  UNL1        0.4200
     22 F         144.7015  141.3892  158.7062 F       1  UNL1       -0.1658
     23 F         144.4012  141.1625  160.7939 F       1  UNL1       -0.1658
     24 F         143.1080  140.0403  158.3305 F       1  UNL1       -0.1658
     25 C         142.5475  140.1643  169.3506 C.2     1  UNL1        0.2189
     26 N         142.9370  140.8801  170.6098 N.am    1  UNL1       -0.3288
     27 O         143.0385  138.7696  169.0981 O.2     1  UNL1       -0.2753
     28 H         142.6147  141.7955  170.7755 H       1  UNL1        0.1449
     29 H         143.5150  140.4346  171.2706 H       1  UNL1        0.1449
     30 N         138.0760  143.6113  164.2381 N.3     1  UNL1       -0.2975
     31 H         137.1964  143.0951  164.2207 H       1  UNL1        0.1232
     32 C         138.1330  142.7097  161.8022 C.3     1  UNL1        0.1591
     33 C         138.5856  142.8422  160.3783 C.3     1  UNL1        0.1729
     34 O         139.4339  144.0086  159.9663 O.3     1  UNL1       -0.3511
     35 C         139.8296  145.0427  160.9784 C.3     1  UNL1        0.1437
     36 C         139.3770  144.9103  162.4023 C.3     1  UNL1        0.0503
     37 C         138.5286  143.7438  162.8142 C.3     1  UNL1        0.0865
     38 C         137.6790  140.1517  161.8167 C.3     1  UNL1        0.1742
     39 O         137.2846  141.5433  162.2141 O.3     1  UNL1       -0.3496
@<TRIPOS>BOND
     1    38    39    1
     2    39    32    1
     3    32    33    1
     4    33    34    1
     5    34    35    1
     6    35    36    1
     7    36    37    1
     8    37    30    1
     9     1    30    1
    10     1     2    1
    11     3     2    1
    12     3     4    1
    13     4     5    1
    14     5    25    1
    15    25    26   am
    16    25    27    2
    17     5     6    1
    18     6     7    1
    19     7     9    1
    20     9    10    2
    21     9    11   am
    22    11    12    1
    23    12    13    1
    24    13    14    1
    25    14    15   ar
    26    15    16   ar
    27    16    17   ar
    28    17    21    1
    29    21    22    1
    30    21    23    1
    31    21    24    1
    32    17    18   ar
    33    18    19   ar
    34    19    20    1
    35     7     8    1
    36    37    32    1
    37     8     1    1
    38     7     3    1
    39    20    11    1
    40    19    14   ar
    41    30    31    1
    42    26    28    1
    43    26    29    1
@<TRIPOS>MOLECULE
*****
 39 43 0 0 0
SMALL
GASTEIGER

@<TRIPOS>ATOM
      1 C         143.3978  139.3949  165.3992 C.3     1  UNL1        0.0545
      2 C         143.0029  138.8580  166.7431 C.3     1  UNL1        0.0162
      3 C         142.8069  140.0225  167.6680 C.3     1  UNL1        0.0100
      4 C         142.4417  140.4104  169.0702 C.3     1  UNL1        0.0096
      5 C         142.4897  141.9067  169.1647 C.3     1  UNL1        0.0767
      6 C         142.8846  142.4435  167.8209 C.3     1  UNL1        0.0177
      7 C         143.0806  141.2791  166.8959 C.3     1  UNL1        0.0708
      8 C         143.4458  140.8911  165.4937 C.3     1  UNL1        0.0243
      9 C         143.3543  142.5355  166.1237 C.2     1  UNL1        0.2250
     10 O         144.4172  143.4858  166.5898 O.2     1  UNL1       -0.2749
     11 N         142.5651  142.8418  164.8854 N.am    1  UNL1       -0.2750
     12 C         142.8389  144.0983  164.1132 C.3     1  UNL1        0.1000
     13 C         142.0497  144.4045  162.8749 C.3     1  UNL1        0.0670
     14 C         140.9868  143.4542  162.4088 C.ar    1  UNL1        0.0583
     15 N         140.1976  143.7605  161.1704 N.ar    1  UNL1       -0.2484
     16 C         139.1348  142.8102  160.7043 C.ar    1  UNL1        0.1023
     17 C         138.8611  141.5537  161.4765 C.ar    1  UNL1        0.0902
     18 C         139.6502  141.2475  162.7148 C.ar    1  UNL1        0.0040
     19 C         140.7131  142.1978  163.1809 C.ar    1  UNL1        0.0113
     20 C         141.5023  141.8915  164.4192 C.3     1  UNL1        0.1213
     21 C         137.7982  140.6034  161.0104 C.3     1  UNL1        0.4200
     22 F         136.7353  139.6532  160.5443 F       1  UNL1       -0.1658
     23 F         137.9632  141.1072  159.6072 F       1  UNL1       -0.1658
     24 F         137.6332  140.0997  162.4136 F       1  UNL1       -0.1658
     25 C         142.1947  142.7228  170.3882 C.2     1  UNL1        0.2189
     26 N         143.2362  143.6505  170.9400 N.am    1  UNL1       -0.3288
     27 O         140.8581  142.6111  171.0598 O.2     1  UNL1       -0.2753
     28 H         144.1134  143.7238  170.4992 H       1  UNL1        0.1449
     29 H         143.0425  144.1862  171.7431 H       1  UNL1        0.1449
     30 N         143.6928  138.5787  164.1757 N.3     1  UNL1       -0.2975
     31 H         144.5745  138.9244  163.7968 H       1  UNL1        0.1232
     32 C         143.0307  139.2661  161.7593 C.3     1  UNL1        0.1591
     33 C         142.0523  139.2379  160.6227 C.3     1  UNL1        0.1729
     34 O         140.7576  138.4942  160.7659 O.3     1  UNL1       -0.3511
     35 C         140.4412  137.7785  162.0457 C.3     1  UNL1        0.1437
     36 C         141.4197  137.8067  163.1823 C.3     1  UNL1        0.0503
     37 C         142.7144  138.5505  163.0391 C.3     1  UNL1        0.0865
     38 C         144.3749  141.4864  161.8761 C.3     1  UNL1        0.1742
     39 O         144.3254  140.0098  161.6161 O.3     1  UNL1       -0.3496
@<TRIPOS>BOND
     1    38    39    1
     2    39    32    1
     3    32    33    1
     4    33    34    1
     5    34    35    1
     6    35    36    1
     7    36    37    1
     8    37    30    1
     9     1    30    1
    10     1     2    1
    11     3     2    1
    12     3     4    1
    13     4     5    1
    14     5    25    1
    15    25    26   am
    16    25    27    2
    17     5     6    1
    18     6     7    1
    19     7     9    1
    20     9    10    2
    21     9    11   am
    22    11    12    1
    23    12    13    1
    24    13    14    1
    25    14    15   ar
    26    15    16   ar
    27    16    17   ar
    28    17    21    1
    29    21    22    1
    30    21    23    1
    31    21    24    1
    32    17    18   ar
    33    18    19   ar
    34    19    20    1
    35     7     8    1
    36    37    32    1
    37     8     1    1
    38     7     3    1
    39    20    11    1
    40    19    14   ar
    41    30    31    1
    42    26    28    1
    43    26    29    1
@<TRIPOS>MOLECULE
*****
 39 43 0 0 0
SMALL
GASTEIGER

@<TRIPOS>ATOM
      1 C         144.1354  141.9463  165.0708 C.3     1  UNL1        0.0545
      2 C         143.7939  142.9390  166.1422 C.3     1  UNL1        0.0162
      3 C         143.0477  142.2154  167.2237 C.3     1  UNL1        0.0100
      4 C         142.3755  142.3817  168.5543 C.3     1  UNL1        0.0096
      5 C         141.8403  141.0446  168.9736 C.3     1  UNL1        0.0767
      6 C         142.1818  140.0519  167.9022 C.3     1  UNL1        0.0177
      7 C         142.9280  140.7755  166.8207 C.3     1  UNL1        0.0708
      8 C         143.6002  140.6092  165.4901 C.3     1  UNL1        0.0243
      9 C         142.8083  139.3356  166.4177 C.2     1  UNL1        0.2250
     10 O         143.4480  138.2671  167.2537 O.2     1  UNL1       -0.2749
     11 N         142.0489  138.9642  165.1785 N.am    1  UNL1       -0.2750
     12 C         141.9292  137.5244  164.7755 C.3     1  UNL1        0.1000
     13 C         141.1698  137.1531  163.5364 C.3     1  UNL1        0.0670
     14 C         140.5301  138.2216  162.7004 C.ar    1  UNL1        0.0583
     15 N         139.7706  137.8502  161.4612 N.ar    1  UNL1       -0.2484
     16 C         139.1309  138.9188  160.6251 C.ar    1  UNL1        0.1023
     17 C         139.2506  140.3587  161.0282 C.ar    1  UNL1        0.0902
     18 C         140.0100  140.7300  162.2673 C.ar    1  UNL1        0.0040
     19 C         140.6497  139.6615  163.1034 C.ar    1  UNL1        0.0113
     20 C         141.4091  140.0328  164.3425 C.3     1  UNL1        0.1213
     21 C         138.6109  141.4272  160.1922 C.3     1  UNL1        0.4200
     22 F         137.9711  142.4957  159.3561 F       1  UNL1       -0.1658
     23 F         139.5058  141.0648  159.0442 F       1  UNL1       -0.1658
     24 F         137.7159  141.7896  161.3401 F       1  UNL1       -0.1658
     25 C         141.0946  140.7517  170.2418 C.2     1  UNL1        0.2189
     26 N         139.9374  139.7974  170.2280 N.am    1  UNL1       -0.3288
     27 O         141.5061  141.4130  171.5237 O.2     1  UNL1       -0.2753
     28 H         139.6673  139.3633  169.3866 H       1  UNL1        0.1449
     29 H         139.4480  139.6052  171.0603 H       1  UNL1        0.1449
     30 N         144.8811  142.2392  163.8026 N.3     1  UNL1       -0.2975
     31 H         145.2101  143.2023  163.8703 H       1  UNL1        0.1232
     32 C         143.6230  143.3260  161.8061 C.3     1  UNL1        0.1591
     33 C         142.9304  143.1970  160.4819 C.3     1  UNL1        0.1729
     34 O         142.8032  141.8521  159.8299 O.3     1  UNL1       -0.3511
     35 C         143.3686  140.6362  160.5022 C.3     1  UNL1        0.1437
     36 C         144.0613  140.7652  161.8265 C.3     1  UNL1        0.0503
     37 C         144.1885  142.1102  162.4784 C.3     1  UNL1        0.0865
     38 C         142.6922  145.1464  163.4091 C.3     1  UNL1        0.1742
     39 O         143.7502  144.6709  162.4581 O.3     1  UNL1       -0.3496
@<TRIPOS>BOND
     1    38    39    1
     2    39    32    1
     3    32    33    1
     4    33    34    1
     5    34    35    1
     6    35    36    1
     7    36    37    1
     8    37    30    1
     9     1    30    1
    10     1     2    1
    11     3     2    1
    12     3     4    1
    13     4     5    1
    14     5    25    1
    15    25    26   am
    16    25    27    2
    17     5     6    1
    18     6     7    1
    19     7     9    1
    20     9    10    2
    21     9    11   am
    22    11    12    1
    23    12    13    1
    24    13    14    1
    25    14    15   ar
    26    15    16   ar
    27    16    17   ar
    28    17    21    1
    29    21    22    1
    30    21    23    1
    31    21    24    1
    32    17    18   ar
    33    18    19   ar
    34    19    20    1
    35     7     8    1
    36    37    32    1
    37     8     1    1
    38     7     3    1
    39    20    11    1
    40    19    14   ar
    41    30    31    1
    42    26    28    1
    43    26    29    1
@<TRIPOS>MOLECULE
*****
 39 43 0 0 0
SMALL
GASTEIGER

@<TRIPOS>ATOM
      1 C         142.1087  138.6205  165.2227 C.3     1  UNL1        0.0545
      2 C         143.1391  139.1470  166.1773 C.3     1  UNL1        0.0162
      3 C         142.4847  140.1858  167.0390 C.3     1  UNL1        0.0100
      4 C         142.7171  141.1533  168.1616 C.3     1  UNL1        0.0096
      5 C         141.4259  141.8668  168.4334 C.3     1  UNL1        0.0767
      6 C         140.3956  141.3403  167.4788 C.3     1  UNL1        0.0177
      7 C         141.0499  140.3015  166.6171 C.3     1  UNL1        0.0708
      8 C         140.8175  139.3340  165.4945 C.3     1  UNL1        0.0243
      9 C         139.6152  140.4170  166.1951 C.2     1  UNL1        0.2250
     10 O         138.5256  139.9175  167.0969 O.2     1  UNL1       -0.2749
     11 N         139.2699  141.0322  164.8713 N.am    1  UNL1       -0.2750
     12 C         137.8352  141.1478  164.4493 C.3     1  UNL1        0.1000
     13 C         137.4900  141.7629  163.1255 C.3     1  UNL1        0.0670
     14 C         138.5796  142.2624  162.2237 C.ar    1  UNL1        0.0583
     15 N         138.2344  142.8776  160.8998 N.ar    1  UNL1       -0.2484
     16 C         139.3240  143.3771  159.9980 C.ar    1  UNL1        0.1023
     17 C         140.7588  143.2615  160.4201 C.ar    1  UNL1        0.0902
     18 C         141.1040  142.6464  161.7439 C.ar    1  UNL1        0.0040
     19 C         140.0144  142.1469  162.6457 C.ar    1  UNL1        0.0113
     20 C         140.3595  141.5317  163.9694 C.3     1  UNL1        0.1213
     21 C         141.8484  143.7611  159.5183 C.3     1  UNL1        0.4200
     22 F         142.9380  144.2606  158.6165 F       1  UNL1       -0.1658
     23 F         141.3465  145.1643  159.6892 F       1  UNL1       -0.1658
     24 F         142.3502  142.3579  159.3473 F       1  UNL1       -0.1658
     25 C         141.2041  142.9215  169.4766 C.2     1  UNL1        0.2189
     26 N         142.0755  142.9646  170.6968 N.am    1  UNL1       -0.3288
     27 O         140.1109  143.9333  169.2996 O.2     1  UNL1       -0.2753
     28 H         142.7929  142.3005  170.8130 H       1  UNL1        0.1449
     29 H         141.9299  143.6568  171.3815 H       1  UNL1        0.1449
     30 N         142.3305  137.5657  164.1795 N.3     1  UNL1       -0.2975
     31 H         143.1900  137.0780  164.4320 H       1  UNL1        0.1232
     32 C         141.2627  137.9039  161.8353 C.3     1  UNL1        0.1591
     33 C         141.3930  138.2920  160.3922 C.3     1  UNL1        0.1729
     34 O         142.7213  138.7300  159.8503 O.3     1  UNL1       -0.3511
     35 C         143.9194  138.7800  160.7515 C.3     1  UNL1        0.1437
     36 C         143.7892  138.3919  162.1946 C.3     1  UNL1        0.0503
     37 C         142.4608  137.9538  162.7364 C.3     1  UNL1        0.0865
     38 C         138.6870  138.2051  161.9931 C.3     1  UNL1        0.1742
     39 O         139.9344  137.4658  162.3772 O.3     1  UNL1       -0.3496
@<TRIPOS>BOND
     1    38    39    1
     2    39    32    1
     3    32    33    1
     4    33    34    1
     5    34    35    1
     6    35    36    1
     7    36    37    1
     8    37    30    1
     9     1    30    1
    10     1     2    1
    11     3     2    1
    12     3     4    1
    13     4     5    1
    14     5    25    1
    15    25    26   am
    16    25    27    2
    17     5     6    1
    18     6     7    1
    19     7     9    1
    20     9    10    2
    21     9    11   am
    22    11    12    1
    23    12    13    1
    24    13    14    1
    25    14    15   ar
    26    15    16   ar
    27    16    17   ar
    28    17    21    1
    29    21    22    1
    30    21    23    1
    31    21    24    1
    32    17    18   ar
    33    18    19   ar
    34    19    20    1
    35     7     8    1
    36    37    32    1
    37     8     1    1
    38     7     3    1
    39    20    11    1
    40    19    14   ar
    41    30    31    1
    42    26    28    1
    43    26    29    1
@<TRIPOS>MOLECULE
*****
 39 43 0 0 0
SMALL
GASTEIGER

@<TRIPOS>ATOM
      1 C         138.5797  141.8653  159.9751 C.3     1  UNL1        0.0545
      2 C         138.0959  140.4943  159.6057 C.3     1  UNL1        0.0162
      3 C         139.2003  139.7958  158.8694 C.3     1  UNL1        0.0100
      4 C         139.5840  138.5168  158.1861 C.3     1  UNL1        0.0096
      5 C         140.9875  138.6656  157.6780 C.3     1  UNL1        0.0767
      6 C         141.4713  140.0365  158.0473 C.3     1  UNL1        0.0177
      7 C         140.3668  140.7350  158.7837 C.3     1  UNL1        0.0708
      8 C         139.9831  142.0140  159.4670 C.3     1  UNL1        0.0243
      9 C         141.5331  141.6743  158.6979 C.2     1  UNL1        0.2250
     10 O         141.6548  142.6149  157.5359 O.2     1  UNL1       -0.2749
     11 N         142.5779  141.6729  159.7743 N.am    1  UNL1       -0.2750
     12 C         143.7443  142.6122  159.6886 C.3     1  UNL1        0.1000
     13 C         144.7890  142.6108  160.7649 C.3     1  UNL1        0.0670
     14 C         144.6673  141.6701  161.9270 C.ar    1  UNL1        0.0583
     15 N         145.7121  141.6688  163.0033 N.ar    1  UNL1       -0.2484
     16 C         145.5905  140.7281  164.1654 C.ar    1  UNL1        0.1023
     17 C         144.4241  139.7889  164.2511 C.ar    1  UNL1        0.0902
     18 C         143.3793  139.7903  163.1748 C.ar    1  UNL1        0.0040
     19 C         143.5010  140.7309  162.0127 C.ar    1  UNL1        0.0113
     20 C         142.4563  140.7323  160.9364 C.3     1  UNL1        0.1213
     21 C         144.3024  138.8482  165.4132 C.3     1  UNL1        0.4200
     22 F         144.1808  137.9076  166.5752 F       1  UNL1       -0.1658
     23 F         142.8256  139.1054  165.4667 F       1  UNL1       -0.1658
     24 F         145.7792  138.5911  165.3596 F       1  UNL1       -0.1658
     25 C         141.7698  137.6258  156.9316 C.2     1  UNL1        0.2189
     26 N         143.2656  137.7166  156.8657 N.am    1  UNL1       -0.3288
     27 O         141.0563  136.4954  156.2512 O.2     1  UNL1       -0.2753
     28 H         143.7339  138.4585  157.3123 H       1  UNL1        0.1449
     29 H         143.7790  137.0342  156.3759 H       1  UNL1        0.1449
     30 N         137.7973  142.9050  160.7215 N.3     1  UNL1       -0.2975
     31 H         137.9944  143.7998  160.2733 H       1  UNL1        0.1232
     32 C         138.5121  144.4184  162.7086 C.3     1  UNL1        0.1591
     33 C         138.7348  144.6123  164.1792 C.3     1  UNL1        0.1729
     34 O         138.4656  143.4867  165.1334 O.3     1  UNL1       -0.3511
     35 C         137.9736  142.1671  164.6169 C.3     1  UNL1        0.1437
     36 C         137.7508  141.9732  163.1463 C.3     1  UNL1        0.0503
     37 C         138.0201  143.0989  162.1921 C.3     1  UNL1        0.0865
     38 C         140.1631  145.7499  161.2081 C.3     1  UNL1        0.1742
     39 O         138.7813  145.5440  161.7544 O.3     1  UNL1       -0.3496
@<TRIPOS>BOND
     1    38    39    1
     2    39    32    1
     3    32    33    1
     4    33    34    1
     5    34    35    1
     6    35    36    1
     7    36    37    1
     8    37    30    1
     9     1    30    1
    10     1     2    1
    11     3     2    1
    12     3     4    1
    13     4     5    1
    14     5    25    1
    15    25    26   am
    16    25    27    2
    17     5     6    1
    18     6     7    1
    19     7     9    1
    20     9    10    2
    21     9    11   am
    22    11    12    1
    23    12    13    1
    24    13    14    1
    25    14    15   ar
    26    15    16   ar
    27    16    17   ar
    28    17    21    1
    29    21    22    1
    30    21    23    1
    31    21    24    1
    32    17    18   ar
    33    18    19   ar
    34    19    20    1
    35     7     8    1
    36    37    32    1
    37     8     1    1
    38     7     3    1
    39    20    11    1
    40    19    14   ar
    41    30    31    1
    42    26    28    1
    43    26    29    1
