@<TRIPOS>MOLECULE
*****
 26 28 0 0 0
SMALL
GASTEIGER

@<TRIPOS>ATOM
      1 O         139.5093  137.6062  164.6574 O.2     1  UNL1       -0.2526
      2 C         138.8124  138.8856  164.3002 C.2     1  UNL1        0.3042
      3 N         138.3817  139.8321  165.3813 N.am    1  UNL1       -0.2847
      4 N         138.5464  139.2185  162.8621 N.am    1  UNL1       -0.2645
      5 C         138.9166  138.3745  161.6787 C.3     1  UNL1        0.0950
      6 C         138.4624  139.0882  160.4400 C.3     1  UNL1        0.0233
      7 C         137.8113  140.3734  160.8579 C.3     1  UNL1        0.0230
      8 C         137.8632  140.4538  162.3549 C.3     1  UNL1        0.0928
      9 H         137.9243  140.6718  165.1469 H       1  UNL1        0.1513
     10 C         138.6478  139.4991  166.8195 C.3     1  UNL1        0.1177
     11 C         139.5634  140.3653  167.6329 C.ar    1  UNL1       -0.0025
     12 C         139.5329  140.2899  169.1306 C.ar    1  UNL1       -0.0027
     13 C         140.4484  141.1561  169.9439 C.ar    1  UNL1        0.0036
     14 C         141.3945  142.0976  169.2594 C.ar    1  UNL1        0.0714
     15 C         141.4251  142.1729  167.7617 C.ar    1  UNL1        0.0036
     16 C         140.5095  141.3068  166.9484 C.ar    1  UNL1       -0.0027
     17 C         142.3101  142.9637  170.0728 C.3     1  UNL1        0.4186
     18 F         143.2257  143.8299  170.8861 F       1  UNL1       -0.1659
     19 F         143.3268  141.8613  170.1024 F       1  UNL1       -0.1659
     20 F         141.2935  144.0662  170.0432 F       1  UNL1       -0.1659
     21 C         137.3263  141.5732  163.1967 C.3     1  UNL1        0.0922
     22 N         138.2604  142.6028  163.7599 N.3     1  UNL1       -0.2713
     23 C         139.7407  142.6717  163.5269 C.3     1  UNL1        0.0722
     24 C         140.2735  143.8558  164.2779 C.3     1  UNL1        0.0188
     25 C         139.1225  144.5188  164.9751 C.3     1  UNL1        0.0188
     26 C         137.8784  143.7443  164.6549 C.3     1  UNL1        0.0722
@<TRIPOS>BOND
     1     1     2    2
     2     2     3   am
     3     3    10    1
     4    10    11    1
     5    11    12   ar
     6    12    13   ar
     7    13    14   ar
     8    14    17    1
     9    17    18    1
    10    17    19    1
    11    17    20    1
    12    14    15   ar
    13    15    16   ar
    14     2     4   am
    15     4     5    1
    16     5     6    1
    17     6     7    1
    18     7     8    1
    19     8    21    1
    20    21    22    1
    21    22    23    1
    22    23    24    1
    23    24    25    1
    24    25    26    1
    25    16    11   ar
    26     8     4    1
    27    26    22    1
    28     3     9    1
@<TRIPOS>MOLECULE
*****
 26 28 0 0 0
SMALL
GASTEIGER

@<TRIPOS>ATOM
      1 O         144.8893  139.7384  164.4177 O.2     1  UNL1       -0.2526
      2 C         143.6453  138.9534  164.1239 C.2     1  UNL1        0.3042
      3 N         142.8136  138.4164  165.2509 N.am    1  UNL1       -0.2847
      4 N         143.2329  138.7055  162.7032 N.am    1  UNL1       -0.2645
      5 C         143.9601  139.1772  161.4789 C.3     1  UNL1        0.0950
      6 C         143.1976  138.7056  160.2764 C.3     1  UNL1        0.0233
      7 C         141.9992  137.9423  160.7574 C.3     1  UNL1        0.0230
      8 C         142.0210  137.9422  162.2572 C.3     1  UNL1        0.0928
      9 H         141.9972  137.9012  165.0580 H       1  UNL1        0.1513
     10 C         143.2260  138.6643  166.6716 C.3     1  UNL1        0.1177
     11 C         142.4175  139.5844  167.5375 C.ar    1  UNL1       -0.0025
     12 C         142.4679  139.4465  169.0303 C.ar    1  UNL1       -0.0027
     13 C         141.6594  140.3665  169.8962 C.ar    1  UNL1        0.0036
     14 C         140.8005  141.4245  169.2693 C.ar    1  UNL1        0.0714
     15 C         140.7501  141.5625  167.7765 C.ar    1  UNL1        0.0036
     16 C         141.5586  140.6424  166.9107 C.ar    1  UNL1       -0.0027
     17 C         139.9920  142.3446  170.1353 C.3     1  UNL1        0.4186
     18 F         139.1835  143.2646  171.0012 F       1  UNL1       -0.1659
     19 F         141.1024  143.3525  170.1012 F       1  UNL1       -0.1659
     20 F         138.8816  141.3368  170.1693 F       1  UNL1       -0.1659
     21 C         141.0088  137.2930  163.1537 C.3     1  UNL1        0.0922
     22 N         140.0445  138.1382  163.9320 N.3     1  UNL1       -0.2713
     23 C         139.6936  139.5678  163.6438 C.3     1  UNL1        0.0722
     24 C         138.6941  140.0155  164.6688 C.3     1  UNL1        0.0188
     25 C         138.4273  138.8624  165.5906 C.3     1  UNL1        0.0188
     26 C         139.2620  137.7022  165.1351 C.3     1  UNL1        0.0722
@<TRIPOS>BOND
     1     1     2    2
     2     2     3   am
     3     3    10    1
     4    10    11    1
     5    11    12   ar
     6    12    13   ar
     7    13    14   ar
     8    14    17    1
     9    17    18    1
    10    17    19    1
    11    17    20    1
    12    14    15   ar
    13    15    16   ar
    14     2     4   am
    15     4     5    1
    16     5     6    1
    17     6     7    1
    18     7     8    1
    19     8    21    1
    20    21    22    1
    21    22    23    1
    22    23    24    1
    23    24    25    1
    24    25    26    1
    25    16    11   ar
    26     8     4    1
    27    26    22    1
    28     3     9    1
@<TRIPOS>MOLECULE
*****
 26 28 0 0 0
SMALL
GASTEIGER

@<TRIPOS>ATOM
      1 O         143.4052  138.8514  162.4456 O.2     1  UNL1       -0.2526
      2 C         142.0219  138.5681  162.9517 C.2     1  UNL1        0.3042
      3 N         141.7833  138.3880  164.4217 N.am    1  UNL1       -0.2847
      4 N         140.8771  138.4650  161.9879 N.am    1  UNL1       -0.2645
      5 C         140.9619  138.6208  160.4984 C.3     1  UNL1        0.0950
      6 C         139.5838  138.4400  159.9343 C.3     1  UNL1        0.0233
      7 C         138.6473  138.1725  161.0752 C.3     1  UNL1        0.0230
      8 C         139.4467  138.1879  162.3443 C.3     1  UNL1        0.0928
      9 H         140.8753  138.2021  164.7538 H       1  UNL1        0.1513
     10 C         142.9280  138.4912  165.3855 C.3     1  UNL1        0.1177
     11 C         142.9196  139.5485  166.4495 C.ar    1  UNL1       -0.0025
     12 C         142.7423  139.1631  167.8883 C.ar    1  UNL1       -0.0027
     13 C         142.7339  140.2204  168.9523 C.ar    1  UNL1        0.0036
     14 C         142.9029  141.6630  168.5775 C.ar    1  UNL1        0.0714
     15 C         143.0802  142.0483  167.1388 C.ar    1  UNL1        0.0036
     16 C         143.0886  140.9910  166.0748 C.ar    1  UNL1       -0.0027
     17 C         142.8945  142.7202  169.6416 C.3     1  UNL1        0.4186
     18 F         142.8861  143.7775  170.7056 F       1  UNL1       -0.1659
     19 F         144.3415  142.4456  169.9259 F       1  UNL1       -0.1659
     20 F         141.4476  142.9949  169.3572 F       1  UNL1       -0.1659
     21 C         138.9098  137.9654  163.7272 C.3     1  UNL1        0.0922
     22 N         139.0270  139.0465  164.7603 N.3     1  UNL1       -0.2713
     23 C         139.2187  140.5092  164.4879 C.3     1  UNL1        0.0722
     24 C         139.2833  141.2216  165.8064 C.3     1  UNL1        0.0188
     25 C         139.1314  140.1992  166.8936 C.3     1  UNL1        0.0188
     26 C         138.9730  138.8550  166.2470 C.3     1  UNL1        0.0722
@<TRIPOS>BOND
     1     1     2    2
     2     2     3   am
     3     3    10    1
     4    10    11    1
     5    11    12   ar
     6    12    13   ar
     7    13    14   ar
     8    14    17    1
     9    17    18    1
    10    17    19    1
    11    17    20    1
    12    14    15   ar
    13    15    16   ar
    14     2     4   am
    15     4     5    1
    16     5     6    1
    17     6     7    1
    18     7     8    1
    19     8    21    1
    20    21    22    1
    21    22    23    1
    22    23    24    1
    23    24    25    1
    24    25    26    1
    25    16    11   ar
    26     8     4    1
    27    26    22    1
    28     3     9    1
@<TRIPOS>MOLECULE
*****
 26 28 0 0 0
SMALL
GASTEIGER

@<TRIPOS>ATOM
      1 O         138.4908  139.6520  169.6068 O.2     1  UNL1       -0.2526
      2 C         139.6070  140.2952  168.8385 C.2     1  UNL1        0.3042
      3 N         139.6600  140.1681  167.3448 N.am    1  UNL1       -0.2847
      4 N         140.6702  141.0655  169.5639 N.am    1  UNL1       -0.2645
      5 C         140.7491  141.2771  171.0467 C.3     1  UNL1        0.0950
      6 C         141.9689  142.1018  171.3331 C.3     1  UNL1        0.0233
      7 C         142.6440  142.3998  170.0271 C.3     1  UNL1        0.0230
      8 C         141.8414  141.7593  168.9337 C.3     1  UNL1        0.0928
      9 H         140.3926  140.5903  166.8405 H       1  UNL1        0.1513
     10 C         138.5967  139.3979  166.6195 C.3     1  UNL1        0.1177
     11 C         138.7275  139.1434  165.1469 C.ar    1  UNL1       -0.0025
     12 C         138.1129  140.0950  164.1639 C.ar    1  UNL1       -0.0027
     13 C         138.2437  139.8405  162.6914 C.ar    1  UNL1        0.0036
     14 C         138.9891  138.6343  162.2021 C.ar    1  UNL1        0.0714
     15 C         139.6038  137.6826  163.1852 C.ar    1  UNL1        0.0036
     16 C         139.4729  137.9372  164.6576 C.ar    1  UNL1       -0.0027
     17 C         139.1199  138.3798  160.7296 C.3     1  UNL1        0.4186
     18 F         139.2508  138.1253  159.2572 F       1  UNL1       -0.1659
     19 F         137.7776  139.0091  160.5016 F       1  UNL1       -0.1659
     20 F         140.4623  137.7505  160.9577 F       1  UNL1       -0.1659
     21 C         142.1548  141.8047  167.4675 C.3     1  UNL1        0.0922
     22 N         142.5690  140.5543  166.7500 N.3     1  UNL1       -0.2713
     23 C         142.9992  139.2696  167.3940 C.3     1  UNL1        0.0722
     24 C         143.3218  138.2903  166.3046 C.3     1  UNL1        0.0188
     25 C         143.0910  138.9697  164.9872 C.3     1  UNL1        0.0188
     26 C         142.6257  140.3689  165.2626 C.3     1  UNL1        0.0722
@<TRIPOS>BOND
     1     1     2    2
     2     2     3   am
     3     3    10    1
     4    10    11    1
     5    11    12   ar
     6    12    13   ar
     7    13    14   ar
     8    14    17    1
     9    17    18    1
    10    17    19    1
    11    17    20    1
    12    14    15   ar
    13    15    16   ar
    14     2     4   am
    15     4     5    1
    16     5     6    1
    17     6     7    1
    18     7     8    1
    19     8    21    1
    20    21    22    1
    21    22    23    1
    22    23    24    1
    23    24    25    1
    24    25    26    1
    25    16    11   ar
    26     8     4    1
    27    26    22    1
    28     3     9    1
@<TRIPOS>MOLECULE
*****
 26 28 0 0 0
SMALL
GASTEIGER

@<TRIPOS>ATOM
      1 O         144.6340  141.8625  162.8557 O.2     1  UNL1       -0.2526
      2 C         143.7091  140.7574  163.2720 C.2     1  UNL1        0.3042
      3 N         143.2062  140.6920  164.6837 N.am    1  UNL1       -0.2847
      4 N         143.2870  139.7177  162.2766 N.am    1  UNL1       -0.2645
      5 C         143.7057  139.6534  160.8377 C.3     1  UNL1        0.0950
      6 C         143.0496  138.4557  160.2171 C.3     1  UNL1        0.0233
      7 C         142.2253  137.7799  161.2725 C.3     1  UNL1        0.0230
      8 C         142.3720  138.5599  162.5453 C.3     1  UNL1        0.0928
      9 H         142.5992  139.9667  164.9570 H       1  UNL1        0.1513
     10 C         143.6283  141.7317  165.6791 C.3     1  UNL1        0.1177
     11 C         142.7097  142.1110  166.8027 C.ar    1  UNL1       -0.0025
     12 C         141.2462  142.3095  166.5405 C.ar    1  UNL1       -0.0027
     13 C         140.3277  142.6888  167.6640 C.ar    1  UNL1        0.0036
     14 C         140.8727  142.8696  169.0498 C.ar    1  UNL1        0.0714
     15 C         142.3361  142.6712  169.3120 C.ar    1  UNL1        0.0036
     16 C         143.2547  142.2919  168.1884 C.ar    1  UNL1       -0.0027
     17 C         139.9540  143.2489  170.1733 C.3     1  UNL1        0.4186
     18 F         139.0355  143.6282  171.2968 F       1  UNL1       -0.1659
     19 F         140.5167  144.6393  170.1640 F       1  UNL1       -0.1659
     20 F         139.3914  141.8585  170.1826 F       1  UNL1       -0.1659
     21 C         141.7185  138.2384  163.8566 C.3     1  UNL1        0.0922
     22 N         140.5273  139.0268  164.3142 N.3     1  UNL1       -0.2713
     23 C         139.8274  138.8813  165.6330 C.3     1  UNL1        0.0722
     24 C         138.6944  139.8638  165.6673 C.3     1  UNL1        0.0188
     25 C         138.6941  140.6165  164.3698 C.3     1  UNL1        0.0188
     26 C         139.8269  140.0992  163.5335 C.3     1  UNL1        0.0722
@<TRIPOS>BOND
     1     1     2    2
     2     2     3   am
     3     3    10    1
     4    10    11    1
     5    11    12   ar
     6    12    13   ar
     7    13    14   ar
     8    14    17    1
     9    17    18    1
    10    17    19    1
    11    17    20    1
    12    14    15   ar
    13    15    16   ar
    14     2     4   am
    15     4     5    1
    16     5     6    1
    17     6     7    1
    18     7     8    1
    19     8    21    1
    20    21    22    1
    21    22    23    1
    22    23    24    1
    23    24    25    1
    24    25    26    1
    25    16    11   ar
    26     8     4    1
    27    26    22    1
    28     3     9    1
@<TRIPOS>MOLECULE
*****
 26 28 0 0 0
SMALL
GASTEIGER

@<TRIPOS>ATOM
      1 O         143.2822  141.7391  162.0608 O.2     1  UNL1       -0.2526
      2 C         142.3285  142.8890  162.1961 C.2     1  UNL1        0.3042
      3 N         141.7025  143.1917  163.5253 N.am    1  UNL1       -0.2847
      4 N         142.0006  143.7359  161.0023 N.am    1  UNL1       -0.2645
      5 C         142.5458  143.5553  159.6166 C.3     1  UNL1        0.0950
      6 C         141.9522  144.6200  158.7426 C.3     1  UNL1        0.0233
      7 C         141.0401  145.4587  159.5881 C.3     1  UNL1        0.0230
      8 C         141.0701  144.9123  160.9847 C.3     1  UNL1        0.0928
      9 H         141.0766  143.9464  163.6141 H       1  UNL1        0.1513
     10 C         142.0304  142.3448  164.7190 C.3     1  UNL1        0.1177
     11 C         141.0690  141.2875  165.1754 C.ar    1  UNL1       -0.0025
     12 C         140.2309  141.5136  166.3986 C.ar    1  UNL1       -0.0027
     13 C         139.2696  140.4564  166.8549 C.ar    1  UNL1        0.0036
     14 C         139.1464  139.1732  166.0879 C.ar    1  UNL1        0.0714
     15 C         139.9846  138.9472  164.8647 C.ar    1  UNL1        0.0036
     16 C         140.9459  140.0043  164.4084 C.ar    1  UNL1       -0.0027
     17 C         138.1851  138.1160  166.5443 C.3     1  UNL1        0.4186
     18 F         137.2238  137.0588  167.0006 F       1  UNL1       -0.1659
     19 F         137.8338  138.9513  167.7396 F       1  UNL1       -0.1659
     20 F         138.5363  137.2807  165.3490 F       1  UNL1       -0.1659
     21 C         140.3040  145.4482  162.1577 C.3     1  UNL1        0.0922
     22 N         139.2690  144.5959  162.8302 N.3     1  UNL1       -0.2713
     23 C         138.8164  144.7183  164.2551 C.3     1  UNL1        0.0722
     24 C         137.7725  143.6697  164.5016 C.3     1  UNL1        0.0188
     25 C         137.5800  142.8992  163.2290 C.3     1  UNL1        0.0188
     26 C         138.5049  143.4717  162.1960 C.3     1  UNL1        0.0722
@<TRIPOS>BOND
     1     1     2    2
     2     2     3   am
     3     3    10    1
     4    10    11    1
     5    11    12   ar
     6    12    13   ar
     7    13    14   ar
     8    14    17    1
     9    17    18    1
    10    17    19    1
    11    17    20    1
    12    14    15   ar
    13    15    16   ar
    14     2     4   am
    15     4     5    1
    16     5     6    1
    17     6     7    1
    18     7     8    1
    19     8    21    1
    20    21    22    1
    21    22    23    1
    22    23    24    1
    23    24    25    1
    24    25    26    1
    25    16    11   ar
    26     8     4    1
    27    26    22    1
    28     3     9    1
@<TRIPOS>MOLECULE
*****
 26 28 0 0 0
SMALL
GASTEIGER

@<TRIPOS>ATOM
      1 O         138.2573  142.6522  164.7674 O.2     1  UNL1       -0.2526
      2 C         139.4666  142.5798  163.8829 C.2     1  UNL1        0.3042
      3 N         140.3398  141.3603  163.9045 N.am    1  UNL1       -0.2847
      4 N         139.8026  143.7269  162.9766 N.am    1  UNL1       -0.2645
      5 C         139.0275  145.0045  162.8470 C.3     1  UNL1        0.0950
      6 C         139.7187  145.8650  161.8312 C.3     1  UNL1        0.0233
      7 C         140.9210  145.1191  161.3330 C.3     1  UNL1        0.0230
      8 C         140.9729  143.7977  162.0409 C.3     1  UNL1        0.0928
      9 H         141.1334  141.3128  163.3239 H       1  UNL1        0.1513
     10 C         140.0037  140.2133  164.8107 C.3     1  UNL1        0.1177
     11 C         140.7224  140.0545  166.1178 C.ar    1  UNL1       -0.0025
     12 C         139.9995  140.3092  167.4071 C.ar    1  UNL1       -0.0027
     13 C         140.7182  140.1504  168.7140 C.ar    1  UNL1        0.0036
     14 C         142.1600  139.7368  168.7316 C.ar    1  UNL1        0.0714
     15 C         142.8830  139.4821  167.4423 C.ar    1  UNL1        0.0036
     16 C         142.1642  139.6409  166.1354 C.ar    1  UNL1       -0.0027
     17 C         142.8788  139.5780  170.0386 C.3     1  UNL1        0.4186
     18 F         143.5975  139.4193  171.3456 F       1  UNL1       -0.1659
     19 F         142.4946  138.1285  170.0738 F       1  UNL1       -0.1659
     20 F         143.2629  141.0276  170.0034 F       1  UNL1       -0.1659
     21 C         142.0124  142.7339  161.8471 C.3     1  UNL1        0.0922
     22 N         143.0538  142.5019  162.9014 N.3     1  UNL1       -0.2713
     23 C         143.3220  143.3837  164.0849 C.3     1  UNL1        0.0722
     24 C         144.4437  142.7742  164.8724 C.3     1  UNL1        0.0188
     25 C         144.8688  141.5155  164.1757 C.3     1  UNL1        0.0188
     26 C         144.0097  141.3473  162.9576 C.3     1  UNL1        0.0722
@<TRIPOS>BOND
     1     1     2    2
     2     2     3   am
     3     3    10    1
     4    10    11    1
     5    11    12   ar
     6    12    13   ar
     7    13    14   ar
     8    14    17    1
     9    17    18    1
    10    17    19    1
    11    17    20    1
    12    14    15   ar
    13    15    16   ar
    14     2     4   am
    15     4     5    1
    16     5     6    1
    17     6     7    1
    18     7     8    1
    19     8    21    1
    20    21    22    1
    21    22    23    1
    22    23    24    1
    23    24    25    1
    24    25    26    1
    25    16    11   ar
    26     8     4    1
    27    26    22    1
    28     3     9    1
@<TRIPOS>MOLECULE
*****
 26 28 0 0 0
SMALL
GASTEIGER

@<TRIPOS>ATOM
      1 O         144.1824  142.7637  160.7757 O.2     1  UNL1       -0.2526
      2 C         142.9441  143.5867  160.9740 C.2     1  UNL1        0.3042
      3 N         142.4417  143.8638  162.3599 N.am    1  UNL1       -0.2847
      4 N         142.2082  144.1325  159.7863 N.am    1  UNL1       -0.2645
      5 C         142.5887  143.9395  158.3483 C.3     1  UNL1        0.0950
      6 C         141.5782  144.6549  157.5014 C.3     1  UNL1        0.0233
      7 C         140.5732  145.2901  158.4161 C.3     1  UNL1        0.0230
      8 C         140.9625  144.9672  159.8282 C.3     1  UNL1        0.0928
      9 H         141.6289  144.4040  162.4901 H       1  UNL1        0.1513
     10 C         143.1776  143.3180  163.5476 C.3     1  UNL1        0.1177
     11 C         142.4403  143.0406  164.8241 C.ar    1  UNL1       -0.0025
     12 C         140.9840  143.3809  164.9383 C.ar    1  UNL1       -0.0027
     13 C         140.2468  143.1034  166.2149 C.ar    1  UNL1        0.0036
     14 C         140.9661  142.4857  167.3772 C.ar    1  UNL1        0.0714
     15 C         142.4225  142.1454  167.2630 C.ar    1  UNL1        0.0036
     16 C         143.1596  142.4228  165.9865 C.ar    1  UNL1       -0.0027
     17 C         140.2289  142.2082  168.6538 C.3     1  UNL1        0.4186
     18 F         139.4917  141.9309  169.9304 F       1  UNL1       -0.1659
     19 F         140.1747  140.7502  168.3057 F       1  UNL1       -0.1659
     20 F         140.2830  143.6663  169.0019 F       1  UNL1       -0.1659
     21 C         140.2341  145.4026  161.0650 C.3     1  UNL1        0.0922
     22 N         139.2654  144.4716  161.7319 N.3     1  UNL1       -0.2713
     23 C         138.9658  143.0628  161.3128 C.3     1  UNL1        0.0722
     24 C         137.9414  142.5064  162.2568 C.3     1  UNL1        0.0188
     25 C         137.6079  143.5713  163.2593 C.3     1  UNL1        0.0188
     26 C         138.4262  144.7859  162.9348 C.3     1  UNL1        0.0722
@<TRIPOS>BOND
     1     1     2    2
     2     2     3   am
     3     3    10    1
     4    10    11    1
     5    11    12   ar
     6    12    13   ar
     7    13    14   ar
     8    14    17    1
     9    17    18    1
    10    17    19    1
    11    17    20    1
    12    14    15   ar
    13    15    16   ar
    14     2     4   am
    15     4     5    1
    16     5     6    1
    17     6     7    1
    18     7     8    1
    19     8    21    1
    20    21    22    1
    21    22    23    1
    22    23    24    1
    23    24    25    1
    24    25    26    1
    25    16    11   ar
    26     8     4    1
    27    26    22    1
    28     3     9    1
@<TRIPOS>MOLECULE
*****
 26 28 0 0 0
SMALL
GASTEIGER

@<TRIPOS>ATOM
      1 O         138.1441  139.2119  168.5870 O.2     1  UNL1       -0.2526
      2 C         139.3004  139.9681  168.0028 C.2     1  UNL1        0.3042
      3 N         139.7061  139.7346  166.5777 N.am    1  UNL1       -0.2847
      4 N         140.0511  140.9576  168.8438 N.am    1  UNL1       -0.2645
      5 C         139.7628  141.2951  170.2766 C.3     1  UNL1        0.0950
      6 C         140.7554  142.3295  170.7179 C.3     1  UNL1        0.0233
      7 C         141.6572  142.6313  169.5578 C.3     1  UNL1        0.0230
      8 C         141.2219  141.7834  168.3996 C.3     1  UNL1        0.0928
      9 H         140.4650  140.2308  166.1943 H       1  UNL1        0.1513
     10 C         138.9554  138.7450  165.7367 C.3     1  UNL1        0.1177
     11 C         138.6554  139.0563  164.3003 C.ar    1  UNL1       -0.0025
     12 C         138.9387  138.0371  163.2370 C.ar    1  UNL1       -0.0027
     13 C         138.6386  138.3484  161.8007 C.ar    1  UNL1        0.0036
     14 C         138.0553  139.6791  161.4278 C.ar    1  UNL1        0.0714
     15 C         137.7720  140.6984  162.4911 C.ar    1  UNL1        0.0036
     16 C         138.0721  140.3870  163.9274 C.ar    1  UNL1       -0.0027
     17 C         137.7553  139.9904  159.9914 C.3     1  UNL1        0.4186
     18 F         137.4553  140.3018  158.5551 F       1  UNL1       -0.1659
     19 F         136.3521  139.4937  160.1768 F       1  UNL1       -0.1659
     20 F         139.1584  140.4871  159.8060 F       1  UNL1       -0.1659
     21 C         141.8476  141.7646  167.0364 C.3     1  UNL1        0.0922
     22 N         141.1497  142.4200  165.8817 N.3     1  UNL1       -0.2713
     23 C         141.5238  142.2873  164.4351 C.3     1  UNL1        0.0722
     24 C         140.5605  143.1083  163.6301 C.3     1  UNL1        0.0188
     25 C         139.5910  143.7484  164.5792 C.3     1  UNL1        0.0188
     26 C         139.9552  143.3229  165.9707 C.3     1  UNL1        0.0722
@<TRIPOS>BOND
     1     1     2    2
     2     2     3   am
     3     3    10    1
     4    10    11    1
     5    11    12   ar
     6    12    13   ar
     7    13    14   ar
     8    14    17    1
     9    17    18    1
    10    17    19    1
    11    17    20    1
    12    14    15   ar
    13    15    16   ar
    14     2     4   am
    15     4     5    1
    16     5     6    1
    17     6     7    1
    18     7     8    1
    19     8    21    1
    20    21    22    1
    21    22    23    1
    22    23    24    1
    23    24    25    1
    24    25    26    1
    25    16    11   ar
    26     8     4    1
    27    26    22    1
    28     3     9    1
